Pcp_File_Version=2
  NumNPD  NumElD  NumBPD  MBandD  NSeepD  NumSPD    NDrD  NElDrMax  NMatD   NObsD  NSD
    1082    2043      11      15       1       1       1      20       1       5     0
