Pcp_File_Version=2
1
Cone Penetrometer
010697, Molly's Data
NOBB    MIT     iWeight
242     30      2
lWater  lChem   NMAT
t       f       1
iModel  iHyst   lAniz
0       0       t
THETAR  THETAS  ALPHA   N       KS      l     Aniz
0.008   0.35    .05     4.0     0.012   0.5   1.2
0       0       1       1       1       0     1
0       0.1     0       2.0     0.0001  0.001 0.3
0       0.6     0       7.      1.0     5.0   10.0
HO(N)    FOS   ITYPE(N) POSITION WTS
     1    -47.61    1    2    1
     5    -48.8     1    2    1
     10   -48.15    1    2    1
     15   -47.07    1    2    1
     20   -35.77    1    2    1
     25   -24.8     1    2    1
     30   -19.52    1    2    1
     35   -17.48    1    2    1
     40   -15.33    1    2    1
     45   -15.43    1    2    1
     50   -14.03    1    2    1
     55   -13.17    1    2    1
     60   -12.42    1    2    1
     65   -12.64    1    2    1
     70   -13.6     1    2    1
     75   -12.1     1    2    1
     80   -11.99    1    2    1
     85   -11.56    1    2    1
     90   -11.88    1    2    1
     95   -11.13    1    2    1
     100  -11.13    1    2    1
     105  -10.05    1    2    1
     110  -10.7     1    2    1
     115  -10.48    1    2    1
     120  -10.16    1    2    1
     125  -9.62     1    2    1
     130  -9.51     1    2    1
     135  -9.41     1    2    1
     140  -9.51     1    2    1
     145  -8.98     1    2    1
     150  -9.84     1    2    1
     155  -9.3 1    2    1
     160  -9.3 1    2    1
     165  -8.87     1    2    1
     170  -9.08     1    2    1
     175  -8.33     1    2    1
     180  -8.22     1    2    1
     185  -8.76     1    2    1
     190  -8.12     1    2    1
     195  -8.55     1    2    1
     200  -8.22     1    2    1
     205  -8.01     1    2    1
     210  -8.01     1    2    1
     215  -8.22     1    2    1
     220  -8.65     1    2    1
     225  -7.9 1    2    1
     230  -8.55     1    2    1
     235  -8.33     1    2    1
     240  -8.01     1    2    1
     245  -7.9 1    2    1
     250  -7.69     1    2    1
     255  -7.58     1    2    1
     260  -7.9 1    2    1
     265  -7.47     1    2    1
     270  -7.58     1    2    1
     275  -7.69     1    2    1
     280  -7.69     1    2    1
     285  -8.12     1    2    1
     290  -7.9 1    2    1
     295  -7.79     1    2    1
     300  -7.04     1    2    1
     305  -7.25     1    2    1
     310  -7.04     1    2    1
     315  -6.93     1    2    1
     320  -7.47     1    2    1
     325  -7.69     1    2    1
     330  -7.25     1    2    1
     335  -7.04     1    2    1
     340  -7.79     1    2    1
     345  -7.58     1    2    1
     350  -6.93     1    2    1
     355  -7.04     1    2    1
     360  -7.58     1    2    1
     365  -6.82     1    2    1
     370  -7.36     1    2    1
     375  5.44 1    2    1
     380  -8.44     1    2    1
     385  -6.72     1    2    1
     390  -7.15     1    2    1
     395  -6.93     1    2    1
     400  -8.98     1    2    1
     1    -50.23    1    1    1
     5    -50.66    1    1    1
     10   -50.76    1    1    1
     15   -50.44    1    1    1
     20   -50.01    1    1    1
     25   -50.34    1    1    1
     30   -49.8     1    1    1
     35   -50.12    1    1    1
     40   -50.01    1    1    1
     45   -50.66    1    1    1
     50   -50.76    1    1    1
     55   -50.12    1    1    1
     60   -50.23    1    1    1
     65   -50.23    1    1    1
     70   -49.48    1    1    1
     75   -49.48    1    1    1
     80   -48.84    1    1    1
     85   -46.7     1    1    1
     90   -43.49    1    1    1
     95   -39.53    1    1    1
     100  -36.22    1    1    1
     105  -32.79    1    1    1
     110  -29.69    1    1    1
     115  -26.27    1    1    1
     120  -23.92    1    1    1
     125  -22.53    1    1    1
     130  -21.24    1    1    1
     135  -20.92    1    1    1
     140  -19.85    1    1    1
     145  -20.07    1    1    1
     150  -19.85    1    1    1
     155  -19.21    1    1    1
     160  -19  1    1    1
     165  -18.78    1    1    1
     170  -18.68    1    1    1
     175  -18.46    1    1    1
     180  -16.75    1    1    1
     185  -18.03    1    1    1
     190  -18.25    1    1    1
     195  -18.14    1    1    1
     200  -18.14    1    1    1
     205  -17.39    1    1    1
     210  -17.82    1    1    1
     215  -17.93    1    1    1
     220  -17.18    1    1    1
     225  -17.28    1    1    1
     230  -16.96    1    1    1
     235  -16.75    1    1    1
     240  -17.07    1    1    1
     245  -16.86    1    1    1
     250  -16.86    1    1    1
     255  -17.07    1    1    1
     260  -16.86    1    1    1
     265  -16.11    1    1    1
     270  -16.86    1    1    1
     275  -16.54    1    1    1
     280  -16.64    1    1    1
     285  -16.96    1    1    1
     290  -16.64    1    1    1
     295  -16.43    1    1    1
     300  -16.43    1    1    1
     305  -16.64    1    1    1
     310  -16.22    1    1    1
     315  -16  1    1    1
     320  -16.11    1    1    1
     325  -16.11    1    1    1
     330  -16.11    1    1    1
     335  -15.47    1    1    1
     340  -16  1    1    1
     345  -16.22    1    1    1
     350  -16.64    1    1    1
     355  -16  1    1    1
     360  -15.79    1    1    1
     365  -16  1    1    1
     370  -15.57    1    1    1
     375  -18.14    1    1    1
     380  -15.79    1    1    1
     385  -16  1    1    1
     390  -15.79    1    1    1
     395  -15.79    1    1    1
     400  -15.89    1    1    1
     5    -168.45   0    1    1
     10   -336.91   0    1    1
     15   -509.51   0    1    1
     20   -671.51   0    1    1
     25   -827.51   0    1    1
     30   -981.51   0    1    1
     35   -1131.51  0    1    1
     40   -1279.51  0    1    1
     45   -1435.51  0    1    1
     50   -1589.51  0    1    1
     55   -1731.51  0    1    1
     60   -1887.51  0    1    1
     65   -2027.51  0    1    1
     70   -2183.51  0    1    1
     75   -2319.51  0    1    1
     80   -2471.51  0    1    1
     85   -2619.51  0    1    1
     90   -2763.51  0    1    1
     95   -2901.51  0    1    1
     100  -3049.51  0    1    1
     105  -3187.51  0    1    1
     110  -3341.51  0    1    1
     115  -3481.51  0    1    1
     120  -3629.51  0    1    1
     125  -3771.51  0    1    1
     130  -3911.51  0    1    1
     135  -4059.51  0    1    1
     140  -4195.51  0    1    1
     145  -4333.51  0    1    1
     150  -4483.51  0    1    1
     155  -4619.51  0    1    1
     160  -4761.51  0    1    1
     165  -4907.51  0    1    1
     170  -5049.51  0    1    1
     175  -5189.51  0    1    1
     180  -5329.51  0    1    1
     185  -5471.51  0    1    1
     190  -5607.51  0    1    1
     195  -5753.51  0    1    1
     200  -5895.51  0    1    1
     205  -6029.51  0    1    1
     210  -6171.51  0    1    1
     215  -6311.51  0    1    1
     220  -6455.51  0    1    1
     225  -6593.51  0    1    1
     230  -6725.51  0    1    1
     235  -6867.51  0    1    1
     240  -7009.51  0    1    1
     245  -7145.51  0    1    1
     250  -7279.51  0    1    1
     255  -7419.51  0    1    1
     260  -7563.51  0    1    1
     265  -7701.51  0    1    1
     270  -7839.51  0    1    1
     275  -7977.51  0    1    1
     280  -8107.51  0    1    1
     285  -8249.51  0    1    1
     290  -8387.51  0    1    1
     295  -8519.51  0    1    1
     300  -8661.51  0    1    1
     305  -8803.51  0    1    1
     310  -8935.51  0    1    1
     315  -9069.51  0    1    1
     320  -9211.51  0    1    1
     325  -9335.51  0    1    1
     330  -9477.51  0    1    1
     335  -9611.51  0    1    1
     340  -9765.51  0    1    1
     345  -9893.51  0    1    1
     350  -10029.51 0    1    1
     355  -10165.51 0    1    1
     360  -10299.51 0    1    1
     365  -10431.51 0    1    1
     370  -10555.51 0    1    1
     375  -10695.51 0    1    1
     380  -10823.51 0    1    1
     385  -10959.51 0    1    1
     390  -11089.51 0    1    1
     395  -11217.51 0    1    1
     400  -11217.51 0    1    1
