Pcp_File_Version=2
*** BLOCK A: BASIC INFORMATION *****************************************
Heading
Example2 - Grass Field Problem
LUnit  TUnit  MUnit  (indicated units are obligatory for all input data)
cm
days
mmol
Kat (0:horizontal plane, 1:axisymmetric vertical flow, 2:vertical plane)
  2
MaxIt   TolTh   TolH InitH/W  (max. number of iterations and tolerances)
  20   0.0005   0.05     f
lWat lChem lSink Short Flux lScrn AtmIn lTemp lWTDep lEquil lExtGen lInv
 t     f     t     f     t    t     t     f     f      t      f      f
*** BLOCK B: MATERIAL INFORMATION **************************************
NMat    NLay    hTab1   hTabN
  2       2    1e-006   10000
    Model   Hysteresis
      0          0
  thr    ths   Alfa     n         Ks      l
0.0001  0.399 0.0174 1.3757      29.75    0.5 
0.0001  0.339 0.0139 1.6024      45.34    0.5 
*** BLOCK C: TIME INFORMATION ******************************************
        dt       dtMin       dtMax     DMul    DMul2  ItMin ItMax  MPL
       0.05      1e-006         0.5     1.3     0.3     3     7     6
      tInit        tMax
         90         273
TPrint(1),TPrint(2),...,TPrint(MPL)
        120         151         181         212         243         273 
*** BLOCK G: ROOT WATER UPTAKE INFORMATION *****************************
     Model  (0 - Feddes, 1 - S shape)
        0
       P0       P2H       P2L       P3          r2H        r2L
      -10      -200      -800     -8000         0.5         0.1
POptm(1),POptm(2),...,POptm(NMat)
     -25      -25 
*** END OF INPUT FILE 'SELECTOR.IN' ************************************
