Pcp_File_Version=2
  NumNPD  NumElD  NumBPD  MBandD  NSeepD  NumSPD    NDrD  NElDrMax  NMatD   NObsD    NSD
     400     722      26      15       1       1       1      20       1       1      1
