Pcp_File_Version=2
      1
Tension Permeameter - Rafael Angulo - Sahel Data
Cumulative infiltration - final water content
   NOBB     MIT iWeight
    223      50       2
  lWatF  lChemF    NMat
      t       f       1
  Model  Hyster    Aniz
      0       0       f
    thr     ths    Alfa       n         Ks       l
   0.01    0.28    0.07     1.9      0.003     0.5 
      0       1       1       1          1       0 
      0    0.27       0     1.1     1e-006       0 
      0     0.5       0     4.5        0.7       0 
      HO(N)         FOS   ITYPE(N) POS     WTS
          15     -44.3486     0     3        1 
          30      -90.809     0     3        1 
          45     -137.269     0     3        1 
          60     -173.171     0     3        1 
          75     -209.072     0     3        1 
          90     -238.638     0     3        1 
         105     -268.203     0     3        1 
         120     -293.545     0     3        1 
         150     -346.341     0     3        1 
         180     -397.025     0     3        1 
         210      -447.71     0     3        1 
         240     -496.282     0     3        1 
         270     -544.854     0     3        1 
         300     -593.426     0     3        1 
         330     -638.831     0     3        1 
         360     -686.347     0     3        1 
         390     -795.107     0     3        1 
         420       -776.1     0     3        1 
         450     -820.449     0     3        1 
         480     -865.853     0     3        1 
         510     -910.202     0     3        1 
         540     -954.551     0     3        1 
         570     -997.843     0     3        1 
         600     -1043.25     0     3        1 
         630     -1084.43     0     3        1 
         660     -1125.61     0     3        1 
         690     -1173.13     0     3        1 
         720     -1215.36     0     3        1 
         780     -1300.89     0     3        1 
         840     -1388.53     0     3        1 
        1080     -1388.53     0     3        1 
        1110     -1442.39     0     3        1 
        1140     -1485.68     0     3        1 
        1170     -1527.91     0     3        1 
        1200     -1565.93     0     3        1 
        1230     -1606.05     0     3        1 
        1260     -1645.12     0     3        1 
        1290     -1684.19     0     3        1 
        1320      -1722.2     0     3        1 
        1380     -1798.23     0     3        1 
        1440     -1874.26     0     3        1 
        1500     -1951.34     0     3        1 
        1560     -2029.48     0     3        1 
        1620      -2105.5     0     3        1 
        1680     -2181.53     0     3        1 
        1740     -2258.61     0     3        1 
        1800     -2335.69     0     3        1 
        1860     -2412.77     0     3        1 
        1920     -2493.02     0     3        1 
        1980     -2566.94     0     3        1 
        2040     -2645.08     0     3        1 
        2100     -2718.99     0     3        1 
        2220     -2869.99     0     3        1 
        2250     -2910.11     0     3        1 
        2430     -2910.11     0     3        1 
        2440     -2922.78     0     3        1 
        2450     -2969.24     0     3        1 
        2460     -2994.59     0     3        1 
        2470     -3016.76     0     3        1 
        2480     -3038.93     0     3        1 
        2490     -3057.94     0     3        1 
        2505     -3087.51     0     3        1 
        2520     -3116.02     0     3        1 
        2535     -3143.47     0     3        1 
        2550     -3169.87     0     3        1 
        2580     -3222.66     0     3        1 
        2610     -3273.35     0     3        1 
        2640     -3325.09     0     3        1 
        2670     -3374.72     0     3        1 
        2730     -3471.86     0     3        1 
        2790     -3567.95     0     3        1 
        2880      -3710.5     0     3        1 
        2910     -3758.02     0     3        1 
        2970     -3853.05     0     3        1 
        3030     -3947.02     0     3        1 
        3090     -4042.06     0     3        1 
        3150     -4132.87     0     3        1 
        3210     -4226.84     0     3        1 
        3270     -4317.65     0     3        1 
        3330     -4410.57     0     3        1 
        3510     -4410.57     0     3        1 
        3520     -4446.47     0     3        1 
        3530     -4484.49     0     3        1 
        3540     -4514.05     0     3        1 
        3550     -4540.45     0     3        1 
        3560     -4566.85     0     3        1 
        3570     -4587.97     0     3        1 
        3585     -4621.76     0     3        1 
        3600     -4655.55     0     3        1 
        3615     -4688.28     0     3        1 
        3630      -4718.9     0     3        1 
        3660     -4782.26     0     3        1 
        3690     -4840.33     0     3        1 
        3720     -4900.52     0     3        1 
        3765     -4984.99     0     3        1 
        3810     -5071.58     0     3        1 
        3870     -5183.51     0     3        1 
        3930     -5293.32     0     3        1 
        3990     -5405.25     0     3        1 
        4020     -5460.16     0     3        1 
        4050     -5515.06     0     3        1 
        4080     -5569.97     0     3        1 
        4110     -5626.99     0     3        1 
        4140     -5679.79     0     3        1 
        4170      -5734.7     0     3        1 
        4200     -5790.66     0     3        1 
        4230     -5844.51     0     3        1 
        4260     -5900.47     0     3        1 
        4290     -5955.38     0     3        1 
        4470     -5955.38     0     3        1 
        4480     -5999.73     0     3        1 
        4490     -6035.63     0     3        1 
        4500     -6067.31     0     3        1 
        4510     -6096.88     0     3        1 
        4520     -6123.27     0     3        1 
        4530     -6144.18     0     3        1 
        4545     -6187.68     0     3        1 
        4560      -6225.7     0     3        1 
        4575     -6262.65     0     3        1 
        4590     -6299.61     0     3        1 
        4605     -6335.51     0     3        1 
        4620     -6370.36     0     3        1 
        4635      -6405.2     0     3        1 
        4650     -6440.05     0     3        1 
        4665     -6473.84     0     3        1 
        4680     -6508.68     0     3        1 
        4695     -6541.42     0     3        1 
        4710     -6575.21     0     3        1 
        4725        -6609     0     3        1 
        4740     -6643.84     0     3        1 
        4755     -6677.63     0     3        1 
        4770     -6712.48     0     3        1 
        4785     -6746.27     0     3        1 
        4800        -6779     0     3        1 
        4815      -6814.9     0     3        1 
        4830     -6845.52     0     3        1 
        4845     -6880.37     0     3        1 
        4860     -6914.16     0     3        1 
        4875     -6946.89     0     3        1 
        4905     -7016.58     0     3        1 
        4920     -7049.31     0     3        1 
        4935     -7084.16     0     3        1 
        4950     -7117.95     0     3        1 
        4965     -7151.74     0     3        1 
        4980     -7185.53     0     3        1 
        4995     -7219.32     0     3        1 
        5010     -7252.05     0     3        1 
        5025     -7287.95     0     3        1 
        5040     -7320.69     0     3        1 
        5055     -7354.47     0     3        1 
        5070     -7387.21     0     3        1 
        5085     -7419.94     0     3        1 
        5100     -7452.68     0     3        1 
        5115     -7485.41     0     3        1 
        5295     -7485.41     0     3        1 
        5305     -7548.76     0     3        1 
        5315     -7595.22     0     3        1 
        5325     -7633.24     0     3        1 
        5335     -7664.91     0     3        1 
        5345      -7698.7     0     3        1 
        5355     -7728.27     0     3        1 
        5370     -7778.95     0     3        1 
        5385      -7823.3     0     3        1 
        5400     -7867.65     0     3        1 
        5415     -7909.89     0     3        1 
        5430     -7952.12     0     3        1 
        5445     -7992.25     0     3        1 
        5475     -8074.61     0     3        1 
        5490     -8116.85     0     3        1 
        5505     -8156.97     0     3        1 
        5520     -8192.87     0     3        1 
        5535     -8235.11     0     3        1 
        5550     -8277.35     0     3        1 
        5565     -8313.25     0     3        1 
        5580     -8355.49     0     3        1 
        5595     -8396.67     0     3        1 
        5610     -8435.74     0     3        1 
        5625     -8473.75     0     3        1 
        5640     -8513.87     0     3        1 
        5655     -8555.05     0     3        1 
        5685     -8636.36     0     3        1 
        5700     -8670.15     0     3        1 
        5715     -8699.72     0     3        1 
        5730     -8748.29     0     3        1 
        5745     -8787.36     0     3        1 
        5760     -8825.37     0     3        1 
        5775     -8868.66     0     3        1 
        5790     -8906.68     0     3        1 
        5805     -8942.58     0     3        1 
        5820     -8980.59     0     3        1 
        5835     -9016.49     0     3        1 
        6015     -9016.49     0     3        1 
        6025     -9100.96     0     3        1 
        6035     -9153.76     0     3        1 
        6045     -9198.11     0     3        1 
        6055     -9240.35     0     3        1 
        6065     -9282.58     0     3        1 
        6075     -9314.26     0     3        1 
        6090      -9375.5     0     3        1 
        6105     -9430.41     0     3        1 
        6120      -9481.1     0     3        1 
        6135     -9531.78     0     3        1 
        6150     -9580.35     0     3        1 
        6165     -9633.15     0     3        1 
        6180     -9683.83     0     3        1 
        6195     -9734.52     0     3        1 
        6210     -9783.09     0     3        1 
        6225     -9833.77     0     3        1 
        6240     -9882.34     0     3        1 
        6255     -9933.03     0     3        1 
        6270     -9979.49     0     3        1 
        6285     -10028.1     0     3        1 
        6300     -10078.7     0     3        1 
        6315     -10123.1     0     3        1 
        6330     -10171.7     0     3        1 
        6345     -10207.6     0     3        1 
        6360     -10270.9     0     3        1 
        6375     -10319.5     0     3        1 
        6390     -10370.2     0     3        1 
        6405     -10414.5     0     3        1 
        6435     -10509.6     0     3        1 
        6450     -10562.4     0     3        1 
        -0.1        0.275     5     1       10 
end*** END OF INPUT FILE 'FIT.IN' **********************************
