Pcp_File_Version=2
*** BLOCK ?: DOMAIN INFORMATION ******************************************************
Number of Solutes   Equilibrium
    3              1
Nodal Information
    n   Code       h           Q        M     Beta     Axz      Bxz      Dxz     Temp     Conc(1..NS)   
    1     2           0             0   1       0        1        1        1          20            0             0             0 
    2     2           0             0   1       0        1        1        1          20            0             0             0 
    3     2           0             0   1       0        1        1        1          20            0             0             0 
    4     2           0             0   1       0        1        1        1          20            0             0             0 
    5     2           0             0   1       0        1        1        1          20            0             0             0 
    6     2           0             0   1       0        1        1        1          20            0             0             0 
    7     2           0             0   1       0        1        1        1          20            0             0             0 
    8     2           0             0   1       0        1        1        1          20            0             0             0 
    9     2           0             0   1       0        1        1        1          20            0             0             0 
   10     0     56.3158             0   1       0        1        1        1          20            0             0             0 
   11     0     56.3158             0   1       0        1        1        1          20            0             0             0 
   12     0     56.3158             0   1       0        1        1        1          20            0             0             0 
   13     0     56.3158             0   1       0        1        1        1          20            0             0             0 
   14     0     56.3158             0   1       0        1        1        1          20            0             0             0 
   15     0     56.3158             0   1       0        1        1        1          20            0             0             0 
   16     0     56.3158             0   1       0        1        1        1          20            0             0             0 
   17     0     56.3158             0   1       0        1        1        1          20            0             0             0 
   18     0     56.3158             0   1       0        1        1        1          20            0             0             0 
   19     0     56.3158             0   1       0        1        1        1          20            0             0             0 
   20     0     56.3158             0   1       0        1        1        1          20            0             0             0 
   21     0     56.3158             0   1       0        1        1        1          20            0             0             0 
   22     0     56.3158             0   1       0        1        1        1          20            0             0             0 
   23     0     56.3158             0   1       0        1        1        1          20            0             0             0 
   24     0     56.3158             0   1       0        1        1        1          20            0             0             0 
   25     0     56.3158             0   1       0        1        1        1          20            0             0             0 
   26     0     56.3158             0   1       0        1        1        1          20            0             0             0 
   27     0     56.3158             0   1       0        1        1        1          20            0             0             0 
   28     0     56.3158             0   1       0        1        1        1          20            0             0             0 
   29     0     56.3158             0   1       0        1        1        1          20            0             0             0 
   30     0     56.3158             0   1       0        1        1        1          20            0             0             0 
   31     0     56.3158             0   1       0        1        1        1          20            0             0             0 
   32     0     56.3158             0   1       0        1        1        1          20            0             0             0 
   33     0     56.3158             0   1       0        1        1        1          20            0             0             0 
   34     0     56.3158             0   1       0        1        1        1          20            0             0             0 
   35     0     56.3158             0   1       0        1        1        1          20            0             0             0 
   36     0     56.3158             0   1       0        1        1        1          20            0             0             0 
   37     0     56.3158             0   1       0        1        1        1          20            0             0             0 
   38     0     43.5235             0   1       0        1        1        1          20            0             0             0 
   39     0     29.1273             0   1       0        1        1        1          20            0             0             0 
   40     0     13.1273             0   1       0        1        1        1          20            0             0             0 
   41     0    -4.47654             0   1       0        1        1        1          20            0             0             0 
   42     0    -23.6842             0   1       0        1        1        1          20            0             0             0 
   43     0    -23.6842             0   1       0        1        1        1          20            0             0             0 
   44     0    -23.6842             0   1       0        1        1        1          20            0             0             0 
   45     0    -33.6842             0   1       0        1        1        1          20            0             0             0 
   46     0    -43.6842             0   1       0        1        1        1          20            0             0             0 
   47     0    -43.6842             0   1       0        1        1        1          20            0             0             0 
   48     0    -43.6842             0   1       0        1        1        1          20            0             0             0 
   49     0    -43.6842             0   1       0        1        1        1          20            0             0             0 
   50     0    -43.6842             0   1       0        1        1        1          20            0             0             0 
   51     0    -43.6842             0   1       0        1        1        1          20            0             0             0 
   52     0    -43.6842             0   1       0        1        1        1          20            0             0             0 
   53     0    -43.6842             0   1       0        1        1        1          20            0             0             0 
   54     0    -43.6842             0   1       0        1        1        1          20            0             0             0 
   55     0    -43.6842             0   1       0        1        1        1          20            0             0             0 
   56     0    -43.6842             0   1       0        1        1        1          20            0             0             0 
   57     0    -43.6842             0   1       0        1        1        1          20            0             0             0 
   58     0    -43.6842             0   1       0        1        1        1          20            0             0             0 
   59     0    -43.6842             0   1       0        1        1        1          20            0             0             0 
   60     0    -43.6842             0   1       0        1        1        1          20            0             0             0 
   61     0    -43.6842             0   1       0        1        1        1          20            0             0             0 
   62     0    -43.6842             0   1       0        1        1        1          20            0             0             0 
   63     0    -43.6842             0   1       0        1        1        1          20            0             0             0 
   64     0    -43.6842             0   1       0        1        1        1          20            0             0             0 
   65     0    -43.6842             0   1       0        1        1        1          20            0             0             0 
   66     0    -43.6842             0   1       0        1        1        1          20            0             0             0 
   67     0    -43.6842             0   1       0        1        1        1          20            0             0             0 
   68     0    -43.6842             0   1       0        1        1        1          20            0             0             0 
   69     0    -43.6842             0   1       0        1        1        1          20            0             0             0 
   70     0    -39.0151             0   1       0        1        1        1          20            0             0             0 
   71     1     1.00365             0   1       0        1        1        1          20            0             0             0 
   72     1     5.00365             0   1       0        1        1        1          20            0             0             0 
   73     1     8.66908             0   1       0        1        1        1          20            0             0             0 
   74     1          12             0   1       0        1        1        1          20            0             0             0 
   75     1          12             0   1       0        1        1        1          20            0             0             0 
   76     1          12             0   1       0        1        1        1          20            0             0             0 
   77     1          12             0   1       0        1        1        1          20            0             0             0 
   78     1          12             0   1       0        1        1        1          20            0             0             0 
   79     0    -19.0007             0   1       0        1        1        1          20            0             0             0 
   80     0    -13.7993             0   1       0        1        1        1          20            0             0             0 
   81     0    -8.08008             0   1       0        1        1        1          20            0             0             0 
   82     0    -1.84302             0   1       0        1        1        1          20            0             0             0 
   83     0     4.91186             0   1       0        1        1        1          20            0             0             0 
   84     0     12.1846             0   1       0        1        1        1          20            0             0             0 
   85     0     19.9752             0   1       0        1        1        1          20            0             0             0 
   86     0     28.2836             0   1       0        1        1        1          20            0             0             0 
   87     0     37.1098             0   1       0        1        1        1          20            0             0             0 
   88     0     46.4538             0   1       0        1        1        1          20            0             0             0 
   89     0     40.8532             0   1       0        1        1        1          20            0             0             0 
   90     0     38.6758             0   1       0        1        1        1          20            0             0             0 
   91     0     35.9087             0   1       0        1        1        1          20            0             0             0 
   92     0      19.523             0   1       0        1        1        1          20            0             0             0 
   93     0     18.6532             0   1       0        1        1        1          20            0             0             0 
   94     0     18.5576             0   1       0        1        1        1          20            0             0             0 
   95     0      34.229             0   1       0        1        1        1          20            0             0             0 
   96     0     37.6577             0   1       0        1        1        1          20            0             0             0 
   97     0     40.6373             0   1       0        1        1        1          20            0             0             0 
   98     0      50.895             0   1       0        1        1        1          20            0             0             0 
   99     0     44.8868             0   1       0        1        1        1          20            0             0             0 
  100     0     38.8818             0   1       0        1        1        1          20            0             0             0 
  101     0      20.146             0   1       0        1        1        1          20            0             0             0 
  102     0     21.2472             0   1       0        1        1        1          20            0             0             0 
  103     0      18.279             0   1       0        1        1        1          20            0             0             0 
  104     0     17.1101             0   1       0        1        1        1          20            0             0             0 
  105     0     16.7185             0   1       0        1        1        1          20            0             0             0 
  106     0      16.338             0   1       0        1        1        1          20            0             0             0 
  107     0     21.3077             0   1       0        1        1        1          20            0             0             0 
  108     0     32.9994             0   1       0        1        1        1          20            0             0             0 
  109     0      43.787             0   1       0        1        1        1          20            0             0             0 
  110     0     43.3354             0   1       0        1        1        1          20            0             0             0 
  111     0     35.3254             0   1       0        1        1        1          20            0             0             0 
  112     0     24.8898             0   1       0        1        1        1          20            0             0             0 
  113     0     27.3267             0   1       0        1        1        1          20            0             0             0 
  114     0      25.653             0   1       0        1        1        1          20            0             0             0 
  115     0     18.3688             0   1       0        1        1        1          20            0             0             0 
  116     0     35.0415             0   1       0        1        1        1          20            0             0             0 
  117     0     30.7191             0   1       0        1        1        1          20            0             0             0 
  118     0     42.5799             0   1       0        1        1        1          20            0             0             0 
  119     0     49.0456             0   1       0        1        1        1          20            0             0             0 
  120     0      37.947             0   1       0        1        1        1          20            0             0             0 
  121     0     31.6464             0   1       0        1        1        1          20            0             0             0 
  122     0     4.75609             0   1       0        1        1        1          20            0             0             0 
  123     0    -11.8362             0   1       0        1        1        1          20            0             0             0 
  124     0    -7.58967             0   1       0        1        1        1          20            0             0             0 
  125     0     7.34041             0   1       0        1        1        1          20            0             0             0 
  126     0    -22.6891             0   1       0        1        1        1          20            0             0             0 
  127     0    -8.69407             0   1       0        1        1        1          20            0             0             0 
  128     0    -10.9477             0   1       0        1        1        1          20            0             0             0 
  129     0    -6.42062             0   1       0        1        1        1          20            0             0             0 
  130     0    -6.01409             0   1       0        1        1        1          20            0             0             0 
  131     0    -6.04874             0   1       0        1        1        1          20            0             0             0 
  132     0    -6.07403             0   1       0        1        1        1          20            0             0             0 
  133     0    -6.35208             0   1       0        1        1        1          20            0             0             0 
  134     0    -7.87015             0   1       0        1        1        1          20            0             0             0 
  135     0    -7.34004             0   1       0        1        1        1          20            0             0             0 
  136     0     -5.9415             0   1       0        1        1        1          20            0             0             0 
  137     0     -2.5926             0   1       0        1        1        1          20            0             0             0 
  138     0    -10.8281             0   1       0        1        1        1          20            0             0             0 
  139     0    -13.9022             0   1       0        1        1        1          20            0             0             0 
  140     0    -16.0809             0   1       0        1        1        1          20            0             0             0 
  141     0    -16.1737             0   1       0        1        1        1          20            0             0             0 
  142     0    -14.4882             0   1       0        1        1        1          20            0             0             0 
  143     0    -24.3873             0   1       0        1        1        1          20            0             0             0 
  144     0    -37.0666             0   1       0        1        1        1          20            0             0             0 
  145     0    -26.7133             0   1       0        1        1        1          20            0             0             0 
  146     0    -6.88135             0   1       0        1        1        1          20            0             0             0 
  147     0    -3.31706             0   1       0        1        1        1          20            0             0             0 
  148     0     -14.721             0   1       0        1        1        1          20            0             0             0 
  149     0    -20.2113             0   1       0        1        1        1          20            0             0             0 
  150     0    -20.6346             0   1       0        1        1        1          20            0             0             0 
  151     0    -16.4163             0   1       0        1        1        1          20            0             0             0 
  152     0    -11.5552             0   1       0        1        1        1          20            0             0             0 
  153     0    -5.68109             0   1       0        1        1        1          20            0             0             0 
  154     0    0.239145             0   1       0        1        1        1          20            0             0             0 
  155     0     24.3968             0   1       0        1        1        1          20            0             0             0 
  156     0      34.696             0   1       0        1        1        1          20            0             0             0 
  157     0     40.3622             0   1       0        1        1        1          20            0             0             0 
  158     0     49.3173             0   1       0        1        1        1          20            0             0             0 
  159     0     11.5447             0   1       0        1        1        1          20            0             0             0 
  160     0     20.2058             0   1       0        1        1        1          20            0             0             0 
  161     0      21.545             0   1       0        1        1        1          20            0             0             0 
  162     0    -1.35339             0   1       0        1        1        1          20            0             0             0 
  163     0     18.9631             0   1       0        1        1        1          20            0             0             0 
  164     0    -11.6878             0   1       0        1        1        1          20            0             0             0 
  165     0     39.6198             0   1       0        1        1        1          20            0             0             0 
  166     0     32.8382             0   1       0        1        1        1          20            0             0             0 
  167     0     25.3648             0   1       0        1        1        1          20            0             0             0 
  168     0     25.1728             0   1       0        1        1        1          20            0             0             0 
  169     0     25.3531             0   1       0        1        1        1          20            0             0             0 
  170     0     39.0998             0   1       0        1        1        1          20            0             0             0 
  171     0     48.6899             0   1       0        1        1        1          20            0             0             0 
  172     0     36.3205             0   1       0        1        1        1          20            0             0             0 
  173     0     42.4026             0   1       0        1        1        1          20            0             0             0 
  174     0     31.5568             0   1       0        1        1        1          20            0             0             0 
  175     0     29.3745             0   1       0        1        1        1          20            0             0             0 
  176     0     28.5304             0   1       0        1        1        1          20            0             0             0 
  177     0     28.2215             0   1       0        1        1        1          20            0             0             0 
  178     0     29.7235             0   1       0        1        1        1          20            0             0             0 
  179     0     33.2413             0   1       0        1        1        1          20            0             0             0 
  180     0      42.178             0   1       0        1        1        1          20            0             0             0 
  181     0     46.4657             0   1       0        1        1        1          20            0             0             0 
  182     0     47.1529             0   1       0        1        1        1          20            0             0             0 
  183     0     42.0436             0   1       0        1        1        1          20            0             0             0 
  184     0     37.1093             0   1       0        1        1        1          20            0             0             0 
  185     0     35.9165             0   1       0        1        1        1          20            0             0             0 
  186     0     34.5727             0   1       0        1        1        1          20            0             0             0 
  187     0     35.4734             0   1       0        1        1        1          20            0             0             0 
  188     0     33.2457             0   1       0        1        1        1          20            0             0             0 
  189     0      44.391             0   1       0        1        1        1          20            0             0             0 
  190     0    -2.24888             0   1       0        1        1        1          20            0             0             0 
  191     0    -34.3145             0   1       0        1        1        1          20            0             0             0 
  192     0    -20.6834             0   1       0        1        1        1          20            0             0             0 
  193     0     -20.473             0   1       0        1        1        1          20            0             0             0 
  194     0    -16.8644             0   1       0        1        1        1          20            0             0             0 
  195     0    -17.2774             0   1       0        1        1        1          20            0             0             0 
  196     0    -18.4015             0   1       0        1        1        1          20            0             0             0 
  197     0     -16.934             0   1       0        1        1        1          20            0             0             0 
  198     0    -16.9748             0   1       0        1        1        1          20            0             0             0 
  199     0    -18.2713             0   1       0        1        1        1          20            0             0             0 
  200     0    -18.0111             0   1       0        1        1        1          20            0             0             0 
  201     0    -28.9612             0   1       0        1        1        1          20            0             0             0 
  202     0    -26.3072             0   1       0        1        1        1          20            0             0             0 
  203     0    -15.5153             0   1       0        1        1        1          20            0             0             0 
  204     0    -20.9697             0   1       0        1        1        1          20            0             0             0 
  205     0    -22.8759             0   1       0        1        1        1          20            0             0             0 
  206     0    -23.8944             0   1       0        1        1        1          20            0             0             0 
  207     0    -25.8329             0   1       0        1        1        1          20            0             0             0 
  208     0    -26.6617             0   1       0        1        1        1          20            0             0             0 
  209     0    -32.1483             0   1       0        1        1        1          20            0             0             0 
  210     0    -33.0452             0   1       0        1        1        1          20            0             0             0 
  211     0    -32.4473             0   1       0        1        1        1          20            0             0             0 
  212     0     -16.003             0   1       0        1        1        1          20            0             0             0 
  213     0    -10.2662             0   1       0        1        1        1          20            0             0             0 
  214     0    -14.2584             0   1       0        1        1        1          20            0             0             0 
  215     0    -19.1056             0   1       0        1        1        1          20            0             0             0 
  216     0    -3.78341             0   1       0        1        1        1          20            0             0             0 
  217     0     1.99023             0   1       0        1        1        1          20            0             0             0 
  218     0     18.3756             0   1       0        1        1        1          20            0             0             0 
  219     0     28.7749             0   1       0        1        1        1          20            0             0             0 
  220     0     27.9104             0   1       0        1        1        1          20            0             0             0 
  221     0     5.28821             0   1       0        1        1        1          20            0             0             0 
  222     0     26.5258             0   1       0        1        1        1          20            0             0             0 
  223     0     -10.106             0   1       0        1        1        1          20            0             0             0 
  224     0     6.45952             0   1       0        1        1        1          20            0             0             0 
  225     0     8.36735             0   1       0        1        1        1          20            0             0             0 