Pcp_File_Version=2
*** BLOCK ?: BOUNDARY INFORMATION *********************************************
    NumBP     NObs  SeepF  FreeD DrainF  qQWLF
      161        0      t      t      f      f
Node Number Array
      1      23      24      25      26      27      28      29      30      31 
     32      33      34      35      36      37      38      39      40      41 
     42      43      44      45      46      47      48      49      50      51 
     52      53      54      55      56      57      58      59      60      61 
     62      63      64      65      66      67      68      69      70      71 
     72      73      74      75      76      77      78      79      80      81 
     82      83      84      85      86      87      88      89      90      91 
     92      93      94      95      96      97      98      99     100     134 
    135     136     137     138     139     140     141     142     143     144 
    145     146     147     148     149     150     151     152     153     154 
    188     189     190     191     192     193     194     195     196     197 
    198     199     200     201     202     203     204     205     206     207 
    208     209     210     211     212     213     214     215     216     217 
    218     219     220     221     222     223     224     225     226     227 
    228     229     230     231     232     233     234     235     236     237 
    238     239     240     241     242     243     244     245     246     247 
    248 
Width Array
0.06248 0.0627963 0.125564 0.125478 0.125337 0.125145 0.124905 0.124624 0.124306 0.123963 
0.123603 0.123238 0.122879 0.122542 0.122241 0.121995 0.121822 0.12174 0.121773 0.12189 
0.121898 0.121638 0.121138 0.120475 0.11974 0.119039 0.118492 0.118234 0.118412 0.119108 
0.120172 0.12137 0.122566 0.123664 0.124584 0.125262 0.125652 0.125716 0.125432 0.124805 
0.123977 0.123143 0.12238 0.121705 0.121139 0.120707 0.120437 0.12036 0.120508 0.120918 
0.121586 0.122371 0.123098 0.123667 0.124005 0.124054 0.123767 0.123106 0.122106 0.121063 
0.120278 0.119783 0.119541 0.119511 0.119659 0.119947 0.120343 0.120816 0.121338 0.121883 
0.122428 0.122954 0.123445 0.123883 0.124258 0.124559 0.12478 0.124915 0.0819674    0.25 
    0.5     0.5     0.5     0.5     0.5     0.5     0.5     0.5     0.5     0.5 
    0.5     0.5     0.5     0.5     0.5     0.5     0.5     0.5     0.5    0.25 
0.0819671 0.163934 0.163934 0.163934 0.163934 0.163934 0.163934 0.163934 0.163934 0.163934 
0.163934 0.163934 0.163934 0.163934 0.163934 0.163934 0.163934 0.163934 0.163934 0.163934 
0.163934 0.163934 0.163934 0.163934 0.163934 0.163934 0.163934 0.163934 0.163934 0.163934 
0.163934 0.163934 0.163934 0.163934 0.163934 0.163934 0.163934 0.163934 0.163934 0.163934 
0.163934 0.163934 0.163934 0.163934 0.163934 0.163934 0.163934 0.163934 0.163934 0.163934 
0.163934 0.163935 0.163934 0.163934 0.163935 0.163935 0.163934 0.163934 0.163935 0.163934 
0.163934 
Length of soil surface associated with transpiration
              0
*** BLOCK E: SEEPAGE INFORMATION (only if SeepF =.true.) *********************
NSeep                                     (number of s.f. expected to develop)
  2
NSP(1),NSP(2),.......,NSP(NSeep)                (number of nodes in each s.f.)
     1     77 
NP(i,1),NP(i,2),.....,NP(i,NSP(i))     (nodal number array of i-th s.f.)
     1 
    23     24     25     26     27     28     29     30     31     32 
    33     34     35     36     37     38     39     40     41     42 
    43     44     45     46     47     48     49     50     51     52 
    53     54     55     56     57     58     59     60     61     62 
    63     64     65     66     67     68     69     70     71     72 
    73     74     75     76     77     78     79     80     81     82 
    83     84     85     86     87     88     89     90     91     92 
    93     94     95     96     97     98     99 
*** BLOCK ?: Solute transport boundary conditions *****************************
KodCB(1),KodCB(2),.....,KodCB(NumBP)
 -1  -1  -1  -1  -1  -1  -1  -1  -1  -1  -1  -1  -1  -1  -1  -1  -1  -1  -1  -1 
 -1  -1  -1  -1  -1  -1  -1  -1  -1  -1  -1  -1  -1  -1  -1  -1  -1  -1  -1  -1 
 -1  -1  -1  -1  -1  -1  -1  -1  -1  -1  -1  -1  -1  -1  -1  -1  -1  -1  -1  -1 
 -1  -1  -1  -1  -1  -1  -1  -1  -1  -1  -1  -1  -1  -1  -1  -1  -1  -1  -1  -1 
 -1  -1  -1  -1  -1  -1  -1  -1  -1  -1  -1  -1  -1  -1  -1  -1  -1  -1  -1  -1 
 -1  -1  -1  -1  -1  -1  -1  -1  -1  -1  -1  -1  -1  -1  -1  -1  -1  -1  -1  -1 
 -1  -1  -1  -1  -1  -1  -1  -1  -1  -1  -1  -1  -1  -1  -1  -1  -1  -1  -1  -1 
 -1  -1  -1  -1  -1  -1  -1  -1  -1  -1  -1  -1  -1  -1  -1  -1  -1  -1  -1  -1 
 -1 
*** End of input file 'BOUNDARY.IN' *******************************************
