Pcp_File_Version=2
*** BLOCK ?: BOUNDARY INFORMATION *********************************************
    NumBP     NObs  SeepF  FreeD DrainF  qQWLF
       98        0      f      t      f      f
Node Number Array
     64      65      66      67      68      69      70      71      72      73 
     74      75      76      77      78      79      99     100     101     102 
    103     104     105     106     107     108     109     110     111     112 
    113     114     115     116     117     118     119     120     121     122 
    123     124     125     126     127     128     129     130     131     132 
    133     134     135     136     137     138     155     156     157     158 
    159     160     161     162     163     164     165     166     167     168 
    169     170     171     172     173     174     175     176     177     178 
    179     180     181     182     183     184     185     186     187     188 
    189     190     191     192     193     194     195     196 
Width Array
      0       0       0       0       0       0       0       0       0       0 
      0       0       0       0       0       0       0       0       0       0 
      0       0       0       0       0       0       0       0       0       0 
      0       0       0       0       0       0       0 11.1111 22.2222 22.2222 
22.2222 22.2222 22.2222 22.2222 22.2222 22.2222 22.2222 22.2222 22.2222 22.2222 
22.2222 22.2222 22.2222 22.2222 22.2222 11.1111       0       0       0       0 
      0       0 5.71429 11.4286 11.4286 11.4286 11.4286 11.4286 11.4286 11.4286 
11.4286 11.4286 11.4286 11.4286 11.4286 11.4286 11.4286 11.4286 11.4286 11.4286 
11.4286 11.4286 11.4286 11.4286 11.4286 11.4286 11.4285 11.4285 11.4286 11.4286 
11.4286 11.4286 11.4286 11.4285 11.4285 11.4286 11.4286 5.71429 
Length of soil surface associated with transpiration
              0
*** End of input file 'BOUNDARY.IN' *******************************************
