Pcp_File_Version=2
  NumNPD  NumElD  NumBPD  MBandD  NSeepD  NumSPD    NDrD  NElDrD   NMatD   NObsD     NSD
    3181    5858       6      15       1       1       1      20       1       3       1
