Pcp_File_Version=2
*** BLOCK ?: BOUNDARY INFORMATION *********************************************
    NumBP     NObs  SeepF  FreeD DrainF  qQWLF
       64        0      f      t      f      f
Node Number Array
      2       3       4       5       6       7       8       9      10      11 
     12      13      14      15      16      17      18      19      20      21 
     22      23      24      49      50      51      52      53      54      55 
     56      57      58      59      60      61      62      63      64      65 
     66      67      68      69      70      71      72      73      74      75 
     76      77      78      79      80      81      82      83      84      85 
     86      87      88      89 
Width Array
 8.3749 16.7498 16.7498 16.7498 16.7498 16.7498 16.7498 16.7498 16.7498 16.7498 
16.7498 16.7498 16.7498 16.7498 16.7498 16.7498 16.7498 16.7498 16.7498 16.7498 
16.7498 16.7498 8.37489 5.02494 10.0499 10.0499 10.0499 10.0499 10.0499 10.0499 
10.0499 10.0499 10.0499 10.0499 10.0499 10.0499 10.0499 10.0499 10.0499 10.0499 
10.0499 10.0499 10.0499 10.0499 10.0499 10.0499 10.0499 10.0499 10.0499 10.0499 
10.0499 10.0499 10.0499 10.0499 10.0499 10.0499 10.0499 10.0499 10.0499 10.0499 
10.0499 10.0498 10.0499 5.02496 
Length of soil surface associated with transpiration
              0
*** End of input file 'BOUNDARY.IN' *******************************************
