Pcp_File_Version=2
  NumNPD  NumElD  NumBPD  MBandD  NSeepD  NumSPD    NDrD  NElDrD   NMatD   NObsD     NSD
    7101   14092      64      15       1       1       1      20       2       1       1
