Pcp_File_Version=2
*** BLOCK I: ATMOSPHERIC INFORMATION  **********************************
   MaxAL                    (MaxAL = number of atmospheric data-records)
     85
 hCritS                 (max. allowed pressure head at the soil surface)
      0
       tAtm        Prec       rSoil       rRoot      hCritA          rt          ht      cValue1    cValue2     cValue3
        0.1       0.581           0           0       15000           0           0           1           0           0 
       21.5           0           0           0       15000           0           0           0           0           0 
       22.5         1.6           0           0       15000           0           0           0           0           0 
       23.5        0.36           0           0       15000           0           0           0           0           0 
       24.5        2.25           0           0       15000           0           0           0           0           0 
       25.5        0.82           0           0       15000           0           0           0           0           0 
       26.5        0.46           0           0       15000           0           0           0           0           0 
       27.5        0.43           0           0       15000           0           0           0           0           0 
       28.5        1.75           0           0       15000           0           0           0           0           0 
       29.5           0           0           0       15000           0           0           0           0           0 
       30.5        0.36           0           0       15000           0           0           0           0           0 
       31.5        0.38           0           0       15000           0           0           0           0           0 
       32.5           0           0           0       15000           0           0           0           0           0 
       33.5        0.06           0           0       15000           0           0           0           0           0 
       34.5        0.02           0           0       15000           0           0           0           0           0 
       36.5       0.005           0           0       15000           0           0           0           0           0 
       37.5        0.72           0           0       15000           0           0           0           0           0 
       38.5           0           0           0       15000           0           0           0           0           0 
       39.5        0.57           0           0       15000           0           0           0           0           0 
       40.5        0.04           0           0       15000           0           0           0           0           0 
       42.5        0.02           0           0       15000           0           0           0           0           0 
       43.5           0           0           0       15000           0           0           0           0           0 
       44.5         0.2           0           0       15000           0           0           0           0           0 
       45.5        0.45           0           0       15000           0           0           0           0           0 
       46.5           0           0           0       15000           0           0           0           0           0 
       47.5         0.1           0           0       15000           0           0           0           0           0 
       48.5        0.01           0           0       15000           0           0           0           0           0 
       49.5        0.11           0           0       15000           0           0           0           0           0 
       50.5        0.06           0           0       15000           0           0           0           0           0 
       52.5           0           0           0       15000           0           0           0           0           0 
       53.5        0.09           0           0       15000           0           0           0           0           0 
       54.5        0.38           0           0       15000           0           0           0           0           0 
       55.5        0.68           0           0       15000           0           0           0           0           0 
       63.5           0           0           0       15000           0           0           0           0           0 
       64.5        0.15           0           0       15000           0           0           0           0           0 
       65.5           0           0           0       15000           0           0           0           0           0 
       66.5        0.02           0           0       15000           0           0           0           0           0 
       67.5        0.06           0           0       15000           0           0           0           0           0 
       68.5        0.03           0           0       15000           0           0           0           0           0 
       69.5         0.2           0           0       15000           0           0           0           0           0 
       70.5        0.65           0           0       15000           0           0           0           0           0 
       71.5           0           0           0       15000           0           0           0           0           0 
       72.5         0.3           0           0       15000           0           0           0           0           0 
       75.5           0           0           0       15000           0           0           0           0           0 
       76.5        0.03           0           0       15000           0           0           0           0           0 
       77.5         0.1           0           0       15000           0           0           0           0           0 
       78.5           0           0           0       15000           0           0           0           0           0 
       79.5        0.38           0           0       15000           0           0           0           0           0 
       80.5        0.09           0           0       15000           0           0           0           0           0 
       81.5        0.55           0           0       15000           0           0           0           0           0 
       82.5        0.81           0           0       15000           0           0           0           0           0 
       84.5       0.065           0           0       15000           0           0           0           0           0 
       85.5        0.21           0           0       15000           0           0           0           0           0 
       86.5        0.05           0           0       15000           0           0           0           0           0 
       89.5           0           0           0       15000           0           0           0           0           0 
       90.5        1.06           0           0       15000           0           0           0           0           0 
       91.5        0.03           0           0       15000           0           0           0           0           0 
       97.5           0           0           0       15000           0           0           0           0           0 
       98.5        0.82           0           0       15000           0           0           0           0           0 
       99.5         0.3           0           0       15000           0           0           0           0           0 
      101.5           0           0           0       15000           0           0           0           0           0 
      102.5        0.22           0           0       15000           0           0           0           0           0 
      105.5           0           0           0       15000           0           0           0           0           0 
      106.5        0.48           0           0       15000           0           0           0           0           0 
      107.5         0.7           0           0       15000           0           0           0           0           0 
      108.5        2.96           0           0       15000           0           0           0           0           0 
      109.5        2.06           0           0       15000           0           0           0           0           0 
      110.5        0.42           0           0       15000           0           0           0           0           0 
      111.5           0           0           0       15000           0           0           0           0           0 
      113.5       0.005           0           0       15000           0           0           0           0           0 
      114.5        0.18           0           0       15000           0           0           0           0           0 
      115.5           0           0           0       15000           0           0           0           0           0 
      116.5        0.68           0           0       15000           0           0           0           0           0 
      117.5        1.21           0           0       15000           0           0           0           0           0 
      118.5        0.04           0           0       15000           0           0           0           0           0 
      119.5        0.21           0           0       15000           0           0           0           0           0 
      122.5           0           0           0       15000           0           0           0           0           0 
      123.5        0.04           0           0       15000           0           0           0           0           0 
      124.5        0.19           0           0       15000           0           0           0           0           0 
      127.5           0           0           0       15000           0           0           0           0           0 
      128.5        0.65           0           0       15000           0           0           0           0           0 
      130.5           0           0           0       15000           0           0           0           0           0 
      132.5        0.09           0           0       15000           0           0           0           0           0 
        133        0.08           0           0       15000           0           0           0           0           0 
        138           0           0           0       15000           0           0           0           0           0 
*** END OF INPUT FILE 'ATMOSPH.IN' *************************************
