Pcp_File_Version=2
*** BLOCK A: BASIC INFORMATION *****************************************
Heading
Solute transport with kinetic linear cation adsorption
LUnit  TUnit  MUnit  (indicated units are obligatory for all input data)
cm
days
mmol
Kat (0:horizontal plane, 1:axisymmetric vertical flow, 2:vertical plane)
  2
MaxIt   TolTh   TolH       (maximum number of iterations and tolerances)
  20   0.0001    0.1       f
lWat lChem lSink Short Flux lScrn AtmIn lTemp lWTDep lEquil lExtGen lInv
 f     t     f     f     t    t     f     f     f      f      f      f
*** BLOCK B: MATERIAL INFORMATION **************************************
NMat    NLay    hTab1   hTabN
  1       1    1e-006   10000
    Model   Hysteresis
      0          0
  thr    ths   Alfa     n         Ks      l
     0  0.445   0.01      2      17.12    0.5 
*** BLOCK C: TIME INFORMATION ******************************************
        dt       dtMin       dtMax     DMul    DMul2  ItMin ItMax  MPL
       0.01       0.002           1     1.3     0.7     3     7     7
      tInit        tMax
          0          20
TPrint(1),TPrint(2),...,TPrint(MPL)
        0.5           1         2.5           5           7          10 
         20 
*** BLOCK G: SOLUTE TRANSPORT INFORMATION *****************************************************
 Epsi  lUpW  lArtD lTDep    cTolA    cTolR   MaxItC    PeCr  Nu.of Solutes Tortuosity
  0.5     f     f     f    0.0001    0.0001    20        2        1         t
     Bulk.d.     DisperL.      DisperT     Frac      ThImob (1..NMat)
      1.222           0           0        0.47           0 
         DifW       DifG                n-th solute
         49           0 
         Ks          Nu        Beta       Henry       SnkL1       SnkS1       SnkG1       SnkL1'      SnkS1'      SnkG1'      SnkL0       SnkS0       SnkG0        Alfa
       1.14           0           1           0           0           0           0           0           0           0           0           0           0        0.32 
       cTop        cBot
         20           0           0           0           0           0           0           0           0 
      tPulse
      6.494
*** END OF INPUT FILE 'SELECTOR.IN' ************************************
