Pcp_File_Version=2
*** BLOCK A: BASIC INFORMATION *****************************************
Heading
Comparison with the 2-D analytical solution
LUnit  TUnit  MUnit  (indicated units are obligatory for all input data)
m
days
-
Kat (0:horizontal plane, 1:axisymmetric vertical flow, 2:vertical plane)
  2
MaxIt   TolTh   TolH       (maximum number of iterations and tolerances)
  20   0.0001  0.001       f
lWat lChem lSink Short Flux lScrn AtmIn lTemp lWTDep lEquil lExtGen lInv
 f     t     f     f     t    t     f     f     f      t      f      f
*** BLOCK B: MATERIAL INFORMATION **************************************
NMat    NLay    hTab1   hTabN
  1       1    1e-008     100
    Model   Hysteresis
      0          0
  thr    ths   Alfa     n         Ks      l
     0    0.3   0.05      2        0.3    0.5 
*** BLOCK C: TIME INFORMATION ******************************************
        dt       dtMin       dtMax     DMul    DMul2  ItMin ItMax  MPL
          1       0.001         100     1.3    0.33     3     7    15
      tInit        tMax
          0         365
TPrint(1),TPrint(2),...,TPrint(MPL)
         25          50          75         100         125         150 
        175         200         225         250         275         300 
        325         350         365 
*** BLOCK G: SOLUTE TRANSPORT INFORMATION *****************************************************
 Epsi  lUpW  lArtD lTDep    cTolA    cTolR   MaxItC    PeCr  Nu.of Solutes Tortuosity
  0.5     f     f     f         0         0     0       10        1         t
     Bulk.d.     DisperL.      DisperT     Frac      ThImob (1..NMat)
       1500           1         0.5           1           0 
         DifW       DifG                n-th solute
          0           0 
         Ks          Nu        Beta       Henry       SnkL1       SnkS1       SnkG1       SnkL1'      SnkS1'      SnkG1'      SnkL0       SnkS0       SnkG0        Alfa
     0.0004           0           1           0        0.01        0.01           0           0           0           0           0           0           0           0 
       cTop        cBot
          1           0           0           0           0           0           0           0           0 
      tPulse
        366
*** END OF INPUT FILE 'SELECTOR.IN' ************************************
