Pcp_File_Version=2
  NumNPD  NumElD  NumBPD  MBandD  NSeepD  NumSPD    NDrD  NElDrMax  NMatD   NObsD   NSD
     457     822      22      15       1       1       1      20       2       3     1
