Pcp_File_Version=2
        1
	Laboratory Experiment
	October 1995
	NOBB    MIT     iWeight
	142     50      2
        lWatF   lChemF  NMat
        t       f       2
  Model  Hyster    Aniz
      0       0       f
thr     ths    Alfa       n         Ks  l
0.001 	0.4	0.0056  1.58    0.016	0.5
1       1       1       1       1	0
0.00005 0.3	0       1.1     0.001	0
0.4  	1.0	1.2     5.0     3.5	0
thr     ths    Alfa       n         Ks       l
0	0.6  .0004       1.5     0.0008334 0.4
0	0        0       0       1         0
0	0        0       1.1   0.000001    0
0	0        0       4.5     0.7       0
	HO(N)       FOS      ITYPE(N)   POSITION WTS
       0.05   0.2    0   3   1
       1.0    2.3    0   3   1
       3.0    5.7    0   3   1
       8.0   12.8    0   3   1
      13.0   16.6    0   3   1
      23.0   19.1    0   3   1
      25.0   19.2    0   3   1
      32.0   42.8    0   3   1
      40.0   57.2    0   3   1
      49.0   64.3    0   3   1
      61.0   68.0    0   3   1
      72.8   70.6    0   3   1
      73.2   76.6    0   3   1
      76.0   96.1    0   3   1
      92.0  169.5    0   3   1
     115.0  243.2    0   3   1
     150.0  314.3    0   3   1
     179.0  356.5    0   3   1
     217.0  396.1    0   3   1
     217.5  404.4    0   3   1
     235.0  488.7    0   3   1
     269.0  602.0    0   3   1
     297.0  661.9    0   3   1
     313.0  689.9    0   3   1
     338.5  723.1    0   3   1
     340.5  750.0    0   3   1
     351.5  791.9    0   3   1
     364.0  834.3    0   3   1
     388.0  904.0    0   3   1
     412.0  956.9    0   3   1
     448.0 1042.3    0   3   1
     513.0 1116.6    0   3   1
     547.0 1143.0    0   3   1
     580.0 1165.6    0   3   1
     605.0 1180.8    0   3   1
       0.05   -3.61   1    1   1
       1.0    -7.5   1    1   1
       3.0   -10.1   1    1   1
       8.0   -13.7   1    1   1
      13.0   -17.1   1    1   1
      23.0   -18.9   1    1   1
      25.0   -19.7   1    1   1
      32.0   -33.2   1    1   1
      40.0   -41.5   1    1   1
      49.0   -46.2   1    1   1
      61.0   -48.1   1    1   1
      72.8   -51.5   1    1   1
      73.2   -51.1   1    1   1
      74.0   -56.8   1    1   1
      92.0   -69.2   1    1   1
     115.0   -76.1   1    1   1
     150.0   -82.1   1    1   1
     179.0   -85.3   1    1   1
     217.0   -89.7   1    1   1
     217.5   -90.5   1    1   1
     235.0  -100.8   1    1   1
     269.0  -112.7   1    1   1
     297.0  -124.7   1    1   1
     313.0  -131.8   1    1   1
     338.5  -142.3   1    1   1
     340.5  -143.8   1    1   1
     351.5  -156.4   1    1   1
     364.0  -170.7   1    1   1
     388.0  -197.2   1    1   1
     412.0  -220.8   1    1   1
     448.0  -250.0   1    1   1
     513.0  -294.7   1    1   1
     547.0  -314.5   1    1   1
     580.0  -330.2   1    1   1
     605.0  -340.8   1    1   1
       0.05    -24.8    1   2   1
       1.0     -28.9    1   2   1
       3.0     -30.6    1   2   1
       8.0     -32.6    1   2   1
      13.0     -34.6    1   2   1
      23.0     -35.6    1   2   1
      25.0     -45.1    1   2   1
      32.0     -56.2    1   2   1
      40.0     -61.3    1   2   1
      49.0     -63.8    1   2   1
      61.0     -66.0    1   2   1
      72.8     -67.7    1   2   1
      73.2     -86.7    1   2   1
      74.0     -91.0    1   2   1
      92.0    -101.0    1   2   1
     115.0    -104.0    1   2   1
     150.0    -106.5    1   2   1
     179.0    -108.0    1   2   1
     217.0    -110.6    1   2   1
     217.5    -130.3    1   2   1
     235.0    -138.9    1   2   1
     269.0    -144.9    1   2   1
     297.0    -153.8    1   2   1
     313.0    -160.0    1   2   1
     338.5    -168.9    1   2   1
     340.5    -189.1    1   2   1
     351.5    -203.6    1   2   1
     364.0    -216.3    1   2   1
     388.0    -239.2    1   2   1
     412.0    -260.5    1   2   1
     448.0    -288.6    1   2   1
     513.0    -329.3    1   2   1
     547.0    -349.0    1   2   1
     580.0    -364.3    1   2   1
     605.0    -373.5    1   2   1
      0.05     -21.2    1   3   1
       1.0     -26.5    1   3   1
       3.0     -28.7    1   3   1
       8.0     -31.2    1   3   1
      13.0     -34.2    1   3   1
      23.0     -35.7    1   3   1
      25.0     -38.0    1   3   1
      32.0     -53.0    1   3   1
      40.0     -59.7    1   3   1
      49.0     -62.7    1   3   1
      61.0     -65.4    1   3   1
      72.8     -67.3    1   3   1
      73.2     -74.8    1   3   1
      74.0     -78.7    1   3   1
      92.0     -94.7    1   3   1
     115.0     -99.5    1   3   1
     150.0    -103.3    1   3   1
     179.0    -105.6    1   3   1
     217.0    -108.4    1   3   1
     217.5    -118.6    1   3   1
     235.0    -131.1    1   3   1
     269.0    -139.8    1   3   1
     297.0    -149.8    1   3   1
     313.0    -156.4    1   3   1
     338.5    -165.8    1   3   1
     340.5    -178.4    1   3   1
     351.5    -194.4    1   3   1
     364.0    -208.1    1   3   1
     388.0    -232.4    1   3   1
     412.0    -254.6    1   3   1
     448.0    -283.6    1   3   1
     513.0    -325.2    1   3   1
     547.0    -344.8    1   3   1
     580.0    -361.4    1   3   1
     605.0    -370.8    1   3   1
     0.002      2939    2   0  10
     605.0      1723    2   0  10 
