Pcp_File_Version=2
*** BLOCK A: BASIC INFORMATION *****************************************
Heading
Axisymmetrical three-dimensional infiltration
LUnit  TUnit  MUnit  (indicated units are obligatory for all input data)
cm
min
-
Kat (0:horizontal plane, 1:axisymmetric vertical flow, 2:vertical plane)
  1
MaxIt   TolTh   TolH       (maximum number of iterations and tolerances)
  20   0.0001    0.1       f
lWat lChem lSink Short Flux lScrn AtmIn lTemp lWTDep lEquil lExtGen lInv
 t     t     f     f     t    t     f     t     f      t      f      f
*** BLOCK B: MATERIAL INFORMATION **************************************
NMat    NLay    hTab1   hTabN
  2       2    1e-006   10000
    Model   Hysteresis
      0          0
  thr    ths   Alfa     n         Ks      l
0.0001  0.399 0.0174 1.3757     0.0207    0.5 
 0.001  0.339 0.0139 1.6024     0.0315    0.5 
*** BLOCK C: TIME INFORMATION ******************************************
        dt       dtMin       dtMax     DMul    DMul2  ItMin ItMax  MPL
        0.1       0.001        1000    1.33    0.33     3     7     6
      tInit        tMax
          0       14400
TPrint(1),TPrint(2),...,TPrint(MPL)
        720        1440        3600        7200       10800       14400 
*** BLOCK G: SOLUTE TRANSPORT INFORMATION *****************************************************
 Epsi  lUpW  lArtD lTDep    cTolA    cTolR   MaxItC    PeCr  Nu.of Solutes Tortuosity
  0.5     t     f     t         0         0     1        2        3         t
     Bulk.d.     DisperL.      DisperT     Frac      ThImob (1..NMat)
        1.3         0.5         0.1           1           0 
        1.3         0.5         0.1           1           0 
         DifW       DifG                n-th solute
      0.026           3 
         Ks          Nu        Beta       Henry       SnkL1       SnkS1       SnkG1       SnkL1'      SnkS1'      SnkG1'      SnkL0       SnkS0       SnkG0        Alfa
        0.1           0           1   1.33e-007    0.000139           0           0     0.00025           0           0           0           0           0           0 
        0.1           0           1   1.33e-007    0.000139           0           0     0.00025           0           0           0           0           0           0 
         DifW       DifG                n-th solute
      0.026           3 
         Ks          Nu        Beta       Henry       SnkL1       SnkS1       SnkG1       SnkL1'      SnkS1'      SnkG1'      SnkL0       SnkS0       SnkG0        Alfa
       0.05           0           1           0   6.94e-006           0           0   1.67e-005           0           0           0           0           0           0 
       0.05           0           1           0   6.94e-006           0           0   1.67e-005           0           0           0           0           0           0 
         DifW       DifG                n-th solute
      0.026           3 
         Ks          Nu        Beta       Henry       SnkL1       SnkS1       SnkG1       SnkL1'      SnkS1'      SnkG1'      SnkL0       SnkS0       SnkG0        Alfa
        0.2           0           1     0.00133   3.47e-006           0           0   1.67e-006           0           0           0           0           0           0 
        0.2           0           1     0.00133   3.47e-006           0           0   1.67e-006           0           0           0           0           0           0 
Temperature Dependence
         DifW       DifG                n-th solute
          0          0
         Ks          Nu        Beta       Henry       SnkL1       SnkS1       SnkG1       SnkL1'      SnkS1'      SnkG1'      SnkL0       SnkS0       SnkG0        Alfa
          0          0          0          0      51213          0          0      81171          0          0          0          0          0          0
         DifW       DifG                n-th solute
          0          0
         Ks          Nu        Beta       Henry       SnkL1       SnkS1       SnkG1       SnkL1'      SnkS1'      SnkG1'      SnkL0       SnkS0       SnkG0        Alfa
          0          0          0          0      51213          0          0      81171          0          0          0          0          0          0
         DifW       DifG                n-th solute
          0          0
         Ks          Nu        Beta       Henry       SnkL1       SnkS1       SnkG1       SnkL1'      SnkS1'      SnkG1'      SnkL0       SnkS0       SnkG0        Alfa
          0          0          0          0      51213          0          0      81171          0          0          0          0          0          0
       cTop        cBot
          1           0           0           0           0           0           0           0         0.5 
          0           0           0           0           0           0           0           0         0.5 
          0           0           0           0           0           0           0           0         0.5 
      tPulse
       7200
*** BLOCK G: HEAT TRANSPORT INFORMATION *********************************************************
    Qn      Qo         Disper.       B1          B2          B3          Cn          Co           Cw
    0.6   0.001     0.5     0.1 5.2488e+006 8.4888e+006 3.3134e+007  6.912e+007  9.036e+007 1.5048e+008 
   0.66   0.001     0.5     0.1 5.2488e+006 8.4888e+006 3.3134e+007  6.912e+007  9.036e+007 1.5048e+008 
       TTop        TBot
         30           0           0           0           0           0 
      tAmpl     tPeriod
          0       3600
*** END OF INPUT FILE 'SELECTOR.IN' ************************************
