Pcp_File_Version=2
  NumNPD  NumElD  NumBPD  MBandD  NSeepD  NumSPD    NDrD  NElDrD   NMatD   NObsD     NSD
     544     987      62      15       1      19       1      20       1       3       1
