Pcp_File_Version=2
*** BLOCK ?: BOUNDARY INFORMATION *********************************************
    NumBP     NObs  SeepF  FreeD DrainF  qQWLF
      139        0      f      t      f      f
Node Number Array
      1       2       3       4       5       6       7       8       9      10 
     11      12      13      14      15      16      17      18      19      20 
     21      22      23      24      25      26      27      28      29      30 
     31      32      33      34      35      36      37      38      39      40 
     41      42      43      44      45      46      47      48      49      50 
     51      52      53      54      55      56      57      58      59      60 
     61      62      63      64      65      66      67      68      69     100 
    101     102     103     104     105     106     107     108     109     110 
    111     112     113     114     115     116     117     118     119     120 
    121     122     123     124     125     126     127     128     129     130 
    131     132     133     134     135     136     137     138     139     140 
    141     142     143     144     145     146     147     148     149     150 
    151     152     153     154     155     156     157     158     159     160 
    161     162     163     164     165     166     167     168     169 
Width Array
8.82353 17.6471 17.6471 17.6471 17.6471 17.6471 17.6471 17.6471 17.6471 17.6471 
17.6471 17.6471 17.6471 17.6471  17.647 17.6471 17.6471 17.6471 17.6471 17.6471 
 17.647  17.647 17.6471 17.6471  17.647 17.6471 17.6471  17.647 17.6471  17.647 
17.6471 17.6471  17.647 17.6471 17.6471 17.6471  17.647 17.6471 17.6471 17.6471 
17.6471  17.647 17.6471 17.6471  17.647 17.6471 17.6471 17.6471  17.647  17.647 
17.6471 17.6471 17.6471  17.647  17.647 17.6471 17.6471 17.6471 17.6471  17.647 
 17.647 17.6471 17.6471  17.647  17.647  17.647  17.647 17.6471 8.82355 8.69568 
17.3913 17.3913 17.3913 17.3913 17.3913 17.3914 17.3913 17.3913 17.3913 17.3913 
17.3913 17.3913 17.3913 17.3913 17.3913 17.3913 17.3913 17.3913 17.3913 17.3913 
17.3913 17.3913 17.3914 17.3913 17.3913 17.3913 17.3913 17.3913 17.3913 17.3913 
17.3913 17.3913 17.3913 17.3913 17.3913 17.3913 17.3913 17.3913 17.3913 17.3913 
17.3913 17.3913 17.3913 17.3913 17.3913 17.3914 17.3913 17.3913 17.3913 17.3913 
17.3913 17.3913 17.3913 17.3913 17.3913 17.3913 17.3913 17.3913 17.3913 17.3913 
17.3913 17.3913 17.3913 17.3913 17.3913 17.3913 17.3913 17.3913  8.6957 
Length of soil surface associated with transpiration
              0
*** End of input file 'BOUNDARY.IN' *******************************************
