Pcp_File_Version=2
*** BLOCK A: BASIC INFORMATION *****************************************
Heading
Solute transport with nonlinear cation adsorption
LUnit  TUnit  MUnit  (indicated units are obligatory for all input data)
cm
days
mmol
Kat (0:horizontal plane, 1:axisymmetric vertical flow, 2:vertical plane)
  2
MaxIt   TolTh   TolH InitH/W  (max. number of iterations and tolerances)
  20   0.0001    0.1     f
lWat lChem lSink Short Flux lScrn AtmIn lTemp lWTDep lEquil lExtGen lInv
 f     t     f     f     t    t     f     f     f      t      f      f
*** BLOCK B: MATERIAL INFORMATION **************************************
NMat    NLay    hTab1   hTabN
  1       1    1e-006   10000
    Model   Hysteresis
      0          0
  thr    ths   Alfa     n         Ks      l
     0  0.633   0.01      2      6.495    0.5 
*** BLOCK C: TIME INFORMATION ******************************************
        dt       dtMin       dtMax     DMul    DMul2  ItMin ItMax  MPL
      0.002       0.001           1     1.3     0.7     3     7     5
      tInit        tMax
          0          25
TPrint(1),TPrint(2),...,TPrint(MPL)
          5          10          15          20          25 
*** BLOCK G: SOLUTE TRANSPORT INFORMATION *****************************************************
 Epsi  lUpW  lArtD lTDep    cTolA    cTolR   MaxItC    PeCr  Nu.of Solutes Tortuosity
  0.5     f     f     f    0.0001    0.0001    20        2        1         t
     Bulk.d.     DisperL.      DisperT     Frac      ThImob (1..NMat)
      0.884       2.727           0           1           0 
         DifW       DifG                n-th solute
          0           0 
         Ks          Nu        Beta       Henry       SnkL1       SnkS1       SnkG1       SnkL1'      SnkS1'      SnkG1'      SnkL0       SnkS0       SnkG0        Alfa
      1.687           0      1.6151           0           0           0           0           0           0           0           0           0           0           0 
       cTop        cBot
         10           0           0           0           0           0           0           0           0 
      tPulse
     14.919
*** END OF INPUT FILE 'SELECTOR.IN' ************************************
