Pcp_File_Version=2
*** BLOCK ?: BOUNDARY INFORMATION *********************************************
    NumBP     NObs  SeepF  FreeD DrainF  qQWLF
      179        5      t      f      f      f
Node Number Array
      1      90      91      92      93      94      95      96      97      98 
     99     100     101     102     103     104     119     120     121     122 
    123     124     125     126     127     128     129     130     131     132 
    133     134     135     136     137     138     139     140     141     142 
    143     144     145     146     147     148     149     150     151     152 
    153     154     155     156     157     158     159     160     161     162 
    163     164     165     166     167     168     169     170     171     172 
    173     174     175     176     177     178     179     180     181     182 
    183     184     185     186     187     188     189     190     191     192 
    193     194     195     196     197     198     199     200     201     202 
    203     204     205     206     207     208     209     210     211     212 
    213     214     215     216     217     218     219     220     221     222 
    223     224     225     226     227     228     229     230     231     232 
    233     234     235     236     237     342     343     344     345     346 
    347     348     349     464     465     466     467     468     469     470 
    471     472     473     474     475     476     477     478     479     480 
    481     482     483     484     485     486     487     488     489     490 
    491     492     493     494     495     496     497     498     499 
Width Array
6.94444 7.14286 14.2857 14.2857 14.2857 14.2857 14.2857 14.2857 14.2857 14.2857 
14.2857 14.2857 14.2857 14.2857 14.2857 7.14286 6.80771 13.6587 13.7346 13.7805 
13.7837 13.7414 13.6617 13.5621 13.4719 13.4215 13.4185 13.4571 13.5293 13.6273 
13.7434 13.8716 14.0059 14.1408 14.2712 14.3931 14.5033 14.5982 14.6754 14.7328 
14.7681 14.7794 14.7665 14.7273 14.6619 14.5702  14.463 14.3581 14.2626 14.1767 
14.1006 14.0342 13.9769 13.9294 13.8921 13.8641 13.8453 13.8366 13.8375 13.8477 
13.8666  13.889 13.9102 13.9291 13.9464  13.962 13.9759 13.9877 13.9975 14.0056 
 14.012 14.0165 14.0193 14.0205 14.0196 14.0177 14.0154 14.0132 14.0111 14.0091 
14.0074 14.0058  14.004 14.0025 14.0011 13.9999 13.9987 13.9977 13.9968 13.9957 
13.9949 13.9942 13.9936  13.993 13.9927 13.9922 13.9917 13.9915 13.9912 13.9911 
13.9912 13.9913 13.9911 13.9912 13.9914 13.9917 13.9921 13.9923 13.9926 13.9931 
13.9934  13.994 13.9945  13.995 13.9958 13.9963 13.9969 13.9977 13.9983  13.999 
     14 14.0007 14.0013 14.0021  14.003 14.0038 14.0047 14.0056 14.0064 14.0073 
14.0082  14.009 14.0099  14.011 7.00583 7.00446 14.0088 14.0085 14.0082 14.0078 
14.0074 14.0072 7.00355 6.94444 13.8889 13.8889 13.8889 13.8889 13.8889 13.8889 
13.8889 13.8889 13.8889 13.8889 13.8889 13.8889 13.8889 13.8889 13.8889 13.8889 
13.8889 13.8889 13.8889 13.8889 13.8889 13.8889 13.8889 13.8889 13.8889 13.8889 
13.8889 13.8889 13.8889 13.8889 13.8889 13.8889 13.8889 13.8889 13.8889 
Length of soil surface associated with transpiration
              0
Observation nodes Node(1,....NObs)
   655   1196   2242   2674   3220 
*** BLOCK E: SEEPAGE INFORMATION (only if SeepF =.true.) *********************
NSeep                                     (number of s.f. expected to develop)
  1
NSP(1),NSP(2),.......,NSP(NSeep)                (number of nodes in each s.f.)
    69 
NP(i,1),NP(i,2),.....,NP(i,NSP(i))     (nodal number array of i-th s.f.)
   169    170    171    172    173    174    175    176    177    178 
   179    180    181    182    183    184    185    186    187    188 
   189    190    191    192    193    194    195    196    197    198 
   199    200    201    202    203    204    205    206    207    208 
   209    210    211    212    213    214    215    216    217    218 
   219    220    221    222    223    224    225    226    227    228 
   229    230    231    232    233    234    235    236    237 
*** BLOCK ?: Solute transport boundary conditions *****************************
KodCB(1),KodCB(2),.....,KodCB(NumBP)
 -1  -1  -1  -1  -1  -1  -1  -1  -1  -1  -1  -1  -1  -1  -1  -1  -1  -1  -1  -1 
 -1  -1  -1  -1  -1  -1  -1  -1  -1  -1  -1  -1  -1  -1  -1  -1  -1  -1  -1  -1 
 -1  -1  -1  -1  -1  -1  -1  -1  -1  -1  -1  -1  -1  -1  -1  -1  -1  -1  -1  -1 
 -1  -1  -1  -1  -1  -1  -1  -1  -1  -1  -1  -1  -1  -1  -1  -1  -1  -1  -1  -1 
 -1  -1  -1  -1  -1  -1  -1  -1  -1  -1  -1  -1  -1  -1  -1  -1  -1  -1  -1  -1 
 -1  -1  -1  -1  -1  -1  -1  -1  -1  -1  -1  -1  -1  -1  -1  -1  -1  -1  -1  -1 
 -1  -1  -1  -1  -1  -1  -1  -1  -1  -1  -1  -1  -1  -1  -1  -2  -2  -2  -2  -2 
 -2  -2  -2  -1  -1  -1  -1  -1  -1  -1  -1  -1  -1  -1  -1  -1  -1  -1  -1  -1 
 -1  -1  -1  -1  -1  -1  -1  -1  -1  -1  -1  -1  -1  -1  -1  -1  -1  -1  -1 
*** End of input file 'BOUNDARY.IN' *******************************************
