Pcp_File_Version=2
*** BLOCK ?: BOUNDARY INFORMATION *********************************************
    NumBP     NObs  SeepF  FreeD DrainF  qQWLF
        4        4      t      f      f      f
Node Number Array
      1       2     202     203 
Width Array
    0.5     0.5     0.5     0.5 
Length of soil surface associated with transpiration
              0
Observation nodes Node(1,....NObs)
   210    242    283    323 
*** BLOCK E: SEEPAGE INFORMATION (only if SeepF =.true.) *********************
NSeep                                     (number of s.f. expected to develop)
  1
NSP(1),NSP(2),.......,NSP(NSeep)                (number of nodes in each s.f.)
     2 
NP(i,1),NP(i,2),.....,NP(i,NSP(i))     (nodal number array of i-th s.f.)
     1      2 
*** BLOCK ?: Solute transport boundary conditions *****************************
KodCB(1),KodCB(2),.....,KodCB(NumBP)
 -1  -1  -1  -1 
*** End of input file 'BOUNDARY.IN' *******************************************
