Pcp_File_Version=2
  NumNPD  NumElD  NumBPD  MBandD  NSeepD  NumSPD    NDrD  NElDrD   NMatD   NObsD   NSD
     402     400       4      15       1       2       1      20       1       4       3
