Pcp_File_Version=2
  NumNPD  NumElD  NumBPD  MBandD  NSeepD  NumSPD    NDrD  NElDrMax  NMatD   NObsD   NSD
     225     392      21      15       1       1       1      20       1       2     0
