Pcp_File_Version=2
*** BLOCK ?: DOMAIN INFORMATION ******************************************************
Number of Solutes   Equilibrium
    0              1
Nodal Information
    n   Code       h           Q        M     Beta     Axz      Bxz      Dxz     Temp     Conc(1..NS)   
    1    -6      0.0768             0   1       0        1        1        1          20
    2    -6      0.0768             0   1       0        1        1        1          20
    3    -6      0.0768             0   1       0        1        1        1          20
    4    -6      0.0768             0   1       0        1        1        1          20
    5    -6      0.0768             0   1       0        1        1        1          20
    6    -6      0.0768             0   1       0        1        1        1          20
    7    -6      0.0768             0   1       0        1        1        1          20
    8    -6      0.0768             0   1       0        1        1        1          20
    9    -6      0.0768             0   1       0        1        1        1          20
   10    -6      0.0768             0   1       0        1        1        1          20
   11    -6      0.0768             0   1       0        1        1        1          20
   12    -6      0.0768             0   1       0        1        1        1          20
   13    -6      0.0768             0   1       0        1        1        1          20
   14    -6      0.0768             0   1       0        1        1        1          20
   15    -6      0.0768             0   1       0        1        1        1          20
   16     0      0.0768             0   1       0        1        1        1          20
   17     0      0.0768             0   1       0        1        1        1          20
   18     0      0.0768             0   1       0        1        1        1          20
   19     0      0.0768             0   1       0        1        1        1          20
   20     0      0.0768             0   1       0        1        1        1          20
   21     0      0.0768             0   1       0        1        1        1          20
   22     0      0.0768             0   1       0        1        1        1          20
   23     0      0.0768             0   1       0        1        1        1          20
   24     0      0.0768             0   1       0        1        1        1          20
   25     0      0.0768             0   1       0        1        1        1          20
   26     0      0.0768             0   1       0        1        1        1          20
   27     0      0.0768             0   1       0        1        1        1          20
   28     0      0.0768             0   1       0        1        1        1          20
   29     0      0.0768             0   1       0        1        1        1          20
   30     0      0.0768             0   1       0        1        1        1          20
   31     0      0.0768             0   1       0        1        1        1          20
   32     0      0.0768             0   1       0        1        1        1          20
   33     0      0.0768             0   1       0        1        1        1          20
   34     0      0.0768             0   1       0        1        1        1          20
   35     0      0.0768             0   1       0        1        1        1          20
   36     0      0.0768             0   1       0        1        1        1          20
   37     0      0.0768             0   1       0        1        1        1          20
   38     3      0.0768             0   1       0        1        1        1          20
   39     3      0.0768             0   1       0        1        1        1          20
   40     3      0.0768             0   1       0        1        1        1          20
   41     3      0.0768             0   1       0        1        1        1          20
   42     3      0.0768             0   1       0        1        1        1          20
   43     3      0.0768             0   1       0        1        1        1          20
   44     0      0.0768             0   1       0        1        1        1          20
   45     0      0.0768             0   1       0        1        1        1          20
   46     0      0.0768             0   1       0        1        1        1          20
   47     0      0.0768             0   1       0        1        1        1          20
   48     0      0.0768             0   1       0        1        1        1          20
   49     0      0.0768             0   1       0        1        1        1          20
   50     0      0.0768             0   1       0        1        1        1          20
   51     0      0.0768             0   1       0        1        1        1          20
   52     0      0.0768             0   1       0        1        1        1          20
   53     0      0.0768             0   1       0        1        1        1          20
   54     0      0.0768             0   1       0        1        1        1          20
   55     0      0.0768             0   1       0        1        1        1          20
   56     0      0.0768             0   1       0        1        1        1          20
   57     0      0.0768             0   1       0        1        1        1          20
   58     0      0.0768             0   1       0        1        1        1          20
   59     0      0.0768             0   1       0        1        1        1          20
   60     0      0.0768             0   1       0        1        1        1          20
   61     0      0.0768             0   1       0        1        1        1          20
   62     0      0.0768             0   1       0        1        1        1          20
   63     0      0.0768             0   1       0        1        1        1          20
   64     0      0.0768             0   1       0        1        1        1          20
   65     0      0.0768             0   1       0        1        1        1          20
   66     0      0.0768             0   1       0        1        1        1          20
   67     0      0.0768             0   1       0        1        1        1          20
   68     0      0.0768             0   1       0        1        1        1          20
   69     0      0.0768             0   1       0        1        1        1          20
   70     0      0.0768             0   1       0        1        1        1          20
   71     0      0.0768             0   1       0        1        1        1          20
   72     0      0.0768             0   1       0        1        1        1          20
   73     0      0.0768             0   1       0        1        1        1          20
   74     0      0.0768             0   1       0        1        1        1          20
   75     0      0.0768             0   1       0        1        1        1          20
   76     0      0.0768             0   1       0        1        1        1          20
   77     0      0.0768             0   1       0        1        1        1          20
   78     0      0.0768             0   1       0        1        1        1          20
   79     0      0.0768             0   1       0        1        1        1          20
   80     0      0.0768             0   1       0        1        1        1          20
   81     0      0.0768             0   1       0        1        1        1          20
   82     0      0.0768             0   1       0        1        1        1          20
   83     0      0.0768             0   1       0        1        1        1          20
   84     0      0.0768             0   1       0        1        1        1          20
   85     0      0.0768             0   1       0        1        1        1          20
   86     0      0.0768             0   1       0        1        1        1          20
   87     0      0.0768             0   1       0        1        1        1          20
   88     0      0.0768             0   1       0        1        1        1          20
   89     0      0.0768             0   1       0        1        1        1          20
   90     0      0.0768             0   1       0        1        1        1          20
   91     0      0.0768             0   1       0        1        1        1          20
   92     0      0.0768             0   1       0        1        1        1          20
   93     0      0.0768             0   1       0        1        1        1          20
   94     0      0.0768             0   1       0        1        1        1          20
   95     0      0.0768             0   1       0        1        1        1          20
   96     0      0.0768             0   1       0        1        1        1          20
   97     0      0.0768             0   1       0        1        1        1          20
   98     0      0.0768             0   1       0        1        1        1          20
   99     0      0.0768             0   1       0        1        1        1          20
  100     0      0.0768             0   1       0        1        1        1          20
  101     0      0.0768             0   1       0        1        1        1          20
  102     0      0.0768             0   1       0        1        1        1          20
  103     0      0.0768             0   1       0        1        1        1          20
  104     0      0.0768             0   1       0        1        1        1          20
  105     0      0.0768             0   1       0        1        1        1          20
  106     0      0.0768             0   1       0        1        1        1          20
  107     0      0.0768             0   1       0        1        1        1          20
  108     0      0.0768             0   1       0        1        1        1          20
  109     0      0.0768             0   1       0        1        1        1          20
  110     0      0.0768             0   1       0        1        1        1          20
  111     0      0.0768             0   1       0        1        1        1          20
  112     0      0.0768             0   1       0        1        1        1          20
  113     0      0.0768             0   1       0        1        1        1          20
  114     0      0.0768             0   1       0        1        1        1          20
  115     0      0.0768             0   1       0        1        1        1          20
  116     0      0.0768             0   1       0        1        1        1          20
  117     0      0.0768             0   1       0        1        1        1          20
  118     0      0.0768             0   1       0        1        1        1          20
  119     0      0.0768             0   1       0        1        1        1          20
  120     0      0.0768             0   1       0        1        1        1          20
  121     0      0.0768             0   1       0        1        1        1          20
  122     0      0.0768             0   1       0        1        1        1          20
  123     0      0.0768             0   1       0        1        1        1          20
  124     0      0.0768             0   1       0        1        1        1          20
  125     0      0.0768             0   1       0        1        1        1          20
  126     0      0.0768             0   1       0        1        1        1          20
  127     0      0.0768             0   1       0        1        1        1          20
  128     0      0.0768             0   1       0        1        1        1          20
  129     0      0.0768             0   1       0        1        1        1          20
  130     0      0.0768             0   1       0        1        1        1          20
  131     0      0.0768             0   1       0        1        1        1          20
  132     0      0.0768             0   1       0        1        1        1          20
  133     0      0.0768             0   1       0        1        1        1          20
  134     0      0.0768             0   1       0        1        1        1          20
  135     0      0.0768             0   1       0        1        1        1          20
  136     0      0.0768             0   1       0        1        1        1          20
  137     0      0.0768             0   1       0        1        1        1          20
  138     0      0.0768             0   1       0        1        1        1          20
  139     0      0.0768             0   1       0        1        1        1          20
  140     0      0.0768             0   1       0        1        1        1          20
  141     0      0.0768             0   1       0        1        1        1          20
  142     0      0.0768             0   1       0        1        1        1          20
  143     0      0.0768             0   1       0        1        1        1          20
  144     0      0.0768             0   1       0        1        1        1          20
  145     0      0.0768             0   1       0        1        1        1          20
  146     0      0.0768             0   1       0        1        1        1          20
  147     0      0.0768             0   1       0        1        1        1          20
  148     0      0.0768             0   1       0        1        1        1          20
  149     0      0.0768             0   1       0        1        1        1          20
  150     0      0.0768             0   1       0        1        1        1          20
  151     0      0.0768             0   1       0        1        1        1          20
  152     0      0.0768             0   1       0        1        1        1          20
  153     0      0.0768             0   1       0        1        1        1          20
  154     0      0.0768             0   1       0        1        1        1          20
  155     0      0.0768             0   1       0        1        1        1          20
  156     0      0.0768             0   1       0        1        1        1          20
  157     0      0.0768             0   1       0        1        1        1          20
  158     0      0.0768             0   1       0        1        1        1          20
  159     0      0.0768             0   1       0        1        1        1          20
  160     0      0.0768             0   1       0        1        1        1          20
  161     0      0.0768             0   1       0        1        1        1          20
  162     0      0.0768             0   1       0        1        1        1          20
  163     0      0.0768             0   1       0        1        1        1          20
  164     0      0.0768             0   1       0        1        1        1          20
  165     0      0.0768             0   1       0        1        1        1          20
  166     0      0.0768             0   1       0        1        1        1          20
  167     0      0.0768             0   1       0        1        1        1          20
  168     0      0.0768             0   1       0        1        1        1          20
  169     0      0.0768             0   1       0        1        1        1          20
  170     0      0.0768             0   1       0        1        1        1          20
  171     0      0.0768             0   1       0        1        1        1          20
  172     0      0.0768             0   1       0        1        1        1          20
  173     0      0.0768             0   1       0        1        1        1          20
  174     0      0.0768             0   1       0        1        1        1          20
  175     0      0.0768             0   1       0        1        1        1          20
  176     0      0.0768             0   1       0        1        1        1          20
  177     0      0.0768             0   1       0        1        1        1          20
  178     0      0.0768             0   1       0        1        1        1          20
  179     0      0.0768             0   1       0        1        1        1          20
  180     0      0.0768             0   1       0        1        1        1          20
  181     0      0.0768             0   1       0        1        1        1          20
  182     0      0.0768             0   1       0        1        1        1          20
  183     0      0.0768             0   1       0        1        1        1          20
  184     0      0.0768             0   1       0        1        1        1          20
  185     0      0.0768             0   1       0        1        1        1          20
  186     0      0.0768             0   1       0        1        1        1          20
  187     0      0.0768             0   1       0        1        1        1          20
  188     0      0.0768             0   1       0        1        1        1          20
  189     0      0.0768             0   1       0        1        1        1          20
  190     0      0.0768             0   1       0        1        1        1          20
  191     0      0.0768             0   1       0        1        1        1          20
  192     0      0.0768             0   1       0        1        1        1          20
  193     0      0.0768             0   1       0        1        1        1          20
  194     0      0.0768             0   1       0        1        1        1          20
  195     0      0.0768             0   1       0        1        1        1          20
  196     0      0.0768             0   1       0        1        1        1          20
  197     0      0.0768             0   1       0        1        1        1          20
  198     0      0.0768             0   1       0        1        1        1          20
  199     0      0.0768             0   1       0        1        1        1          20
  200     0      0.0768             0   1       0        1        1        1          20
  201     0      0.0768             0   1       0        1        1        1          20
  202     0      0.0768             0   1       0        1        1        1          20
  203     0      0.0768             0   1       0        1        1        1          20
  204     0      0.0768             0   1       0        1        1        1          20
  205     0      0.0768             0   1       0        1        1        1          20
  206     0      0.0768             0   1       0        1        1        1          20
  207     0      0.0768             0   1       0        1        1        1          20
  208     0      0.0768             0   1       0        1        1        1          20
  209     0      0.0768             0   1       0        1        1        1          20
  210     0      0.0768             0   1       0        1        1        1          20
  211     0      0.0768             0   1       0        1        1        1          20
  212     0      0.0768             0   1       0        1        1        1          20
  213     0      0.0768             0   1       0        1        1        1          20
  214     0      0.0768             0   1       0        1        1        1          20
  215     0      0.0768             0   1       0        1        1        1          20
  216     0      0.0768             0   1       0        1        1        1          20
  217     0      0.0768             0   1       0        1        1        1          20
  218     0      0.0768             0   1       0        1        1        1          20
  219     0      0.0768             0   1       0        1        1        1          20
  220     0      0.0768             0   1       0        1        1        1          20
  221     0      0.0768             0   1       0        1        1        1          20
  222     0      0.0768             0   1       0        1        1        1          20
  223     0      0.0768             0   1       0        1        1        1          20
  224     0      0.0768             0   1       0        1        1        1          20
  225     0      0.0768             0   1       0        1        1        1          20
Element Information ------------------------------------------------------------------
    e    Angle    AnizA1    AnizA2  LayNum
    1        0         1         1     1
    2        0         1         1     1
    3        0         1         1     1
    4        0         1         1     1
    5        0         1         1     1
    6        0         1         1     1
    7        0         1         1     1
    8        0         1         1     1
    9        0         1         1     1
   10        0         1         1     1
   11        0         1         1     1
   12        0         1         1     1
   13        0         1         1     1
   14        0         1         1     1
   15        0         1         1     1
   16        0         1         1     1
   17        0         1         1     1
   18        0         1         1     1
   19        0         1         1     1
   20        0         1         1     1
   21        0         1         1     1
   22        0         1         1     1
   23        0         1         1     1
   24        0         1         1     1
   25        0         1         1     1
   26        0         1         1     1
   27        0         1         1     1
   28        0         1         1     1
   29        0         1         1     1
   30        0         1         1     1
   31        0         1         1     1
   32        0         1         1     1
   33        0         1         1     1
   34        0         1         1     1
   35        0         1         1     1
   36        0         1         1     1
   37        0         1         1     1
   38        0         1         1     1
   39        0         1         1     1
   40        0         1         1     1
   41        0         1         1     1
   42        0         1         1     1
   43        0         1         1     1
   44        0         1         1     1
   45        0         1         1     1
   46        0         1         1     1
   47        0         1         1     1
   48        0         1         1     1
   49        0         1         1     1
   50        0         1         1     1
   51        0         1         1     1
   52        0         1         1     1
   53        0         1         1     1
   54        0         1         1     1
   55        0         1         1     1
   56        0         1         1     1
   57        0         1         1     1
   58        0         1         1     1
   59        0         1         1     1
   60        0         1         1     1
   61        0         1         1     1
   62        0         1         1     1
   63        0         1         1     1
   64        0         1         1     1
   65        0         1         1     1
   66        0         1         1     1
   67        0         1         1     1
   68        0         1         1     1
   69        0         1         1     1
   70        0         1         1     1
   71        0         1         1     1
   72        0         1         1     1
   73        0         1         1     1
   74        0         1         1     1
   75        0         1         1     1
   76        0         1         1     1
   77        0         1         1     1
   78        0         1         1     1
   79        0         1         1     1
   80        0         1         1     1
   81        0         1         1     1
   82        0         1         1     1
   83        0         1         1     1
   84        0         1         1     1
   85        0         1         1     1
   86        0         1         1     1
   87        0         1         1     1
   88        0         1         1     1
   89        0         1         1     1
   90        0         1         1     1
   91        0         1         1     1
   92        0         1         1     1
   93        0         1         1     1
   94        0         1         1     1
   95        0         1         1     1
   96        0         1         1     1
   97        0         1         1     1
   98        0         1         1     1
   99        0         1         1     1
  100        0         1         1     1
  101        0         1         1     1
  102        0         1         1     1
  103        0         1         1     1
  104        0         1         1     1
  105        0         1         1     1
  106        0         1         1     1
  107        0         1         1     1
  108        0         1         1     1
  109        0         1         1     1
  110        0         1         1     1
  111        0         1         1     1
  112        0         1         1     1
  113        0         1         1     1
  114        0         1         1     1
  115        0         1         1     1
  116        0         1         1     1
  117        0         1         1     1
  118        0         1         1     1
  119        0         1         1     1
  120        0         1         1     1
  121        0         1         1     1
  122        0         1         1     1
  123        0         1         1     1
  124        0         1         1     1
  125        0         1         1     1
  126        0         1         1     1
  127        0         1         1     1
  128        0         1         1     1
  129        0         1         1     1
  130        0         1         1     1
  131        0         1         1     1
  132        0         1         1     1
  133        0         1         1     1
  134        0         1         1     1
  135        0         1         1     1
  136        0         1         1     1
  137        0         1         1     1
  138        0         1         1     1
  139        0         1         1     1
  140        0         1         1     1
  141        0         1         1     1
  142        0         1         1     1
  143        0         1         1     1
  144        0         1         1     1
  145        0         1         1     1
  146        0         1         1     1
  147        0         1         1     1
  148        0         1         1     1
  149        0         1         1     1
  150        0         1         1     1
  151        0         1         1     1
  152        0         1         1     1
  153        0         1         1     1
  154        0         1         1     1
  155        0         1         1     1
  156        0         1         1     1
  157        0         1         1     1
  158        0         1         1     1
  159        0         1         1     1
  160        0         1         1     1
  161        0         1         1     1
  162        0         1         1     1
  163        0         1         1     1
  164        0         1         1     1
  165        0         1         1     1
  166        0         1         1     1
  167        0         1         1     1
  168        0         1         1     1
  169        0         1         1     1
  170        0         1         1     1
  171        0         1         1     1
  172        0         1         1     1
  173        0         1         1     1
  174        0         1         1     1
  175        0         1         1     1
  176        0         1         1     1
  177        0         1         1     1
  178        0         1         1     1
  179        0         1         1     1
  180        0         1         1     1
  181        0         1         1     1
  182        0         1         1     1
  183        0         1         1     1
  184        0         1         1     1
  185        0         1         1     1
  186        0         1         1     1
  187        0         1         1     1
  188        0         1         1     1
  189        0         1         1     1
  190        0         1         1     1
  191        0         1         1     1
  192        0         1         1     1
  193        0         1         1     1
  194        0         1         1     1
  195        0         1         1     1
  196        0         1         1     1
  197        0         1         1     1
  198        0         1         1     1
  199        0         1         1     1
  200        0         1         1     1
  201        0         1         1     1
  202        0         1         1     1
  203        0         1         1     1
  204        0         1         1     1
  205        0         1         1     1
  206        0         1         1     1
  207        0         1         1     1
  208        0         1         1     1
  209        0         1         1     1
  210        0         1         1     1
  211        0         1         1     1
  212        0         1         1     1
  213        0         1         1     1
  214        0         1         1     1
  215        0         1         1     1
  216        0         1         1     1
  217        0         1         1     1
  218        0         1         1     1
  219        0         1         1     1
  220        0         1         1     1
  221        0         1         1     1
  222        0         1         1     1