Pcp_File_Version=2
        1
        Tension Permeameter - Riverside data, 10cm radius, 1 run
        Cumulative infiltration
        NOBB    MIT     lWeight
        1017    50      2
        lWatF   lChemF  NMat
        t       f       1
        iModel  Hyster  lAniz
        0       0       f
  thr     ths    Alfa      n         Ks         l
  0.0    0.33   0.045     2.0     0.0001    -0.5
    0       1       1       1          1       1
    0    0.10       0     1.1   0.000001     -10
    0    0.50       0     4.5        0.7 -0.0001
HO(N)     FOS ITYPE(N) POSITION WTS
1	-0.15584	0	3	1
2	-0.46752	0	3	1
3	-1.24673	0	3	1
4	-1.24673	0	3	1
5	-1.71425	0	3	1
6	0.15584	0	3	1
7	-1.71425	0	3	1
8	-2.02593	0	3	1
9	-3.11681	0	3	1
10	-2.02593	0	3	1
11	-1.71425	0	3	1
12	-2.02593	0	3	1
13	-0.46752	0	3	1
14	-1.87009	0	3	1
15	-0.31168	0	3	1
16	-2.64929	0	3	1
17	-2.02593	0	3	1
18	-2.64929	0	3	1
19	-0.7792	0	3	1
20	-2.80513	0	3	1
21	-2.33761	0	3	1
22	-3.27265	0	3	1
23	-2.33761	0	3	1
24	-3.11681	0	3	1
25	-3.27265	0	3	1
26	-1.87009	0	3	1
27	-3.74018	0	3	1
28	-3.27265	0	3	1
29	-4.51938	0	3	1
30	-3.89602	0	3	1
31	-3.27265	0	3	1
32	-3.11681	0	3	1
33	-2.18177	0	3	1
34	-2.64929	0	3	1
35	-4.05186	0	3	1
36	-3.11681	0	3	1
37	-4.05186	0	3	1
38	-4.67522	0	3	1
39	-4.05186	0	3	1
40	-2.02593	0	3	1
41	-3.4285	0	3	1
42	-2.96097	0	3	1
43	-4.05186	0	3	1
44	-3.89602	0	3	1
45	-3.4285	0	3	1
46	-4.9869	0	3	1
47	-3.74018	0	3	1
48	-4.67522	0	3	1
49	-4.9869	0	3	1
50	-3.11681	0	3	1
51	-3.4285	0	3	1
52	-3.74018	0	3	1
53	-3.58434	0	3	1
54	-3.58434	0	3	1
55	-5.29858	0	3	1
56	-4.51938	0	3	1
57	-4.9869	0	3	1
58	-5.45442	0	3	1
59	-6.70115	0	3	1
60	-4.83106	0	3	1
61	-5.14274	0	3	1
62	-6.23363	0	3	1
63	-4.9869	0	3	1
64	-4.2077	0	3	1
65	-5.61027	0	3	1
66	-3.58434	0	3	1
67	-5.76611	0	3	1
68	-6.07779	0	3	1
69	-5.45442	0	3	1
70	-5.61027	0	3	1
71	-6.54531	0	3	1
72	-6.07779	0	3	1
73	-5.14274	0	3	1
74	-4.9869	0	3	1
75	-4.67522	0	3	1
76	-4.9869	0	3	1
77	-5.76611	0	3	1
78	-5.92195	0	3	1
79	-7.01283	0	3	1
80	-6.70115	0	3	1
81	-6.07779	0	3	1
82	-5.61027	0	3	1
83	-6.54531	0	3	1
84	-6.38947	0	3	1
85	-7.48035	0	3	1
86	-8.88292	0	3	1
87	-7.01283	0	3	1
88	-6.54531	0	3	1
89	-7.16867	0	3	1
90	-6.70115	0	3	1
91	-7.79203	0	3	1
92	-7.01283	0	3	1
93	-11.6881	0	3	1
94	-9.66212	0	3	1
95	-6.70115	0	3	1
96	-9.35044	0	3	1
97	-8.57124	0	3	1
98	-8.10372	0	3	1
99	-9.35044	0	3	1
100	-7.48035	0	3	1
101	-7.94788	0	3	1
102	-9.81796	0	3	1
103	-9.1946	0	3	1
104	-9.1946	0	3	1
105	-8.4154	0	3	1
106	-7.79203	0	3	1
107	-9.50628	0	3	1
108	-9.81796	0	3	1
109	-7.32451	0	3	1
110	-8.57124	0	3	1
111	-11.0647	0	3	1
112	-10.1296	0	3	1
113	-9.03876	0	3	1
114	-9.66212	0	3	1
115	-7.79203	0	3	1
116	-9.50628	0	3	1
117	-10.4413	0	3	1
118	-8.88292	0	3	1
119	-11.5322	0	3	1
120	-9.35044	0	3	1
121	-8.10372	0	3	1
122	-11.0647	0	3	1
123	-8.88292	0	3	1
124	-9.66212	0	3	1
125	-10.4413	0	3	1
126	-8.57124	0	3	1
127	-8.57124	0	3	1
128	-9.50628	0	3	1
129	-10.4413	0	3	1
130	-10.5972	0	3	1
131	-9.1946	0	3	1
132	-10.1296	0	3	1
133	-8.10372	0	3	1
134	-9.50628	0	3	1
135	-8.88292	0	3	1
136	-10.1296	0	3	1
137	-9.81796	0	3	1
138	-10.1296	0	3	1
139	-11.2205	0	3	1
140	-9.81796	0	3	1
141	-9.1946	0	3	1
142	-10.4413	0	3	1
143	-11.3764	0	3	1
144	-10.9089	0	3	1
145	-11.9997	0	3	1
146	-10.4413	0	3	1
147	-8.57124	0	3	1
148	-11.6881	0	3	1
149	-11.0647	0	3	1
150	-11.9997	0	3	1
151	-11.6881	0	3	1
152	-12.3114	0	3	1
153	-12.7789	0	3	1
154	-11.2205	0	3	1
155	-11.0647	0	3	1
156	-11.3764	0	3	1
157	-10.9089	0	3	1
158	-11.5322	0	3	1
159	-11.8439	0	3	1
160	-11.3764	0	3	1
161	-11.8439	0	3	1
162	-11.6881	0	3	1
163	-11.9997	0	3	1
164	-12.7789	0	3	1
165	-13.5581	0	3	1
166	-12.3114	0	3	1
167	-11.3764	0	3	1
168	-12.6231	0	3	1
169	-12.9348	0	3	1
170	-11.3764	0	3	1
171	-12.3114	0	3	1
172	-12.4673	0	3	1
173	-11.3764	0	3	1
174	-11.8439	0	3	1
175	-13.0906	0	3	1
176	-12.7789	0	3	1
177	-14.0257	0	3	1
178	-15.1166	0	3	1
179	-13.2465	0	3	1
180	-11.9997	0	3	1
181	-15.1166	0	3	1
182	-14.8049	0	3	1
183	-14.3373	0	3	1
184	-15.8958	0	3	1
185	-13.714	0	3	1
186	-15.5841	0	3	1
187	-14.649	0	3	1
188	-15.8958	0	3	1
189	-14.4932	0	3	1
190	-13.0906	0	3	1
191	-13.2465	0	3	1
192	-13.5581	0	3	1
193	-13.2465	0	3	1
194	-17.4542	0	3	1
195	-12.9348	0	3	1
196	-14.1815	0	3	1
197	-12.7789	0	3	1
198	-15.1166	0	3	1
199	-12.6231	0	3	1
200	-13.8698	0	3	1
201	-13.4023	0	3	1
202	-13.714	0	3	1
203	-12.4673	0	3	1
204	-14.0257	0	3	1
205	-14.9607	0	3	1
206	-14.3373	0	3	1
207	-14.1815	0	3	1
208	-13.2465	0	3	1
209	-9.81796	0	3	1
210	-11.9997	0	3	1
211	-12.3114	0	3	1
212	-13.4023	0	3	1
213	-15.1166	0	3	1
214	-13.714	0	3	1
215	-14.3373	0	3	1
216	-15.5841	0	3	1
217	-14.9607	0	3	1
218	-12.9348	0	3	1
219	-14.4932	0	3	1
220	-14.0257	0	3	1
221	-13.5581	0	3	1
222	-13.2465	0	3	1
223	-15.2724	0	3	1
224	-15.2724	0	3	1
225	-14.9607	0	3	1
226	-13.2465	0	3	1
227	-16.8308	0	3	1
228	-16.9866	0	3	1
229	-15.1166	0	3	1
230	-14.1815	0	3	1
231	-15.8958	0	3	1
232	-16.0516	0	3	1
233	-20.1035	0	3	1
234	-14.1815	0	3	1
235	-14.4932	0	3	1
236	-13.714	0	3	1
237	-14.1815	0	3	1
238	-15.7399	0	3	1
239	-15.2724	0	3	1
240	-14.4932	0	3	1
241	-16.3633	0	3	1
242	-15.8958	0	3	1
243	-14.1815	0	3	1
244	-15.4282	0	3	1
245	-14.3373	0	3	1
246	-15.2724	0	3	1
247	-16.9866	0	3	1
248	-14.3373	0	3	1
249	-15.5841	0	3	1
250	-15.1166	0	3	1
251	-15.4282	0	3	1
252	-16.2074	0	3	1
253	-15.5841	0	3	1
254	-15.1166	0	3	1
255	-16.8308	0	3	1
256	-16.0516	0	3	1
257	-16.3633	0	3	1
258	-15.2724	0	3	1
259	-15.8958	0	3	1
260	-15.4282	0	3	1
261	-17.1425	0	3	1
262	-17.2983	0	3	1
263	-15.1166	0	3	1
264	-14.8049	0	3	1
265	-14.1815	0	3	1
266	-15.1166	0	3	1
267	-15.4282	0	3	1
268	-15.8958	0	3	1
269	-17.4542	0	3	1
270	-16.0516	0	3	1
271	-16.8308	0	3	1
272	-16.2074	0	3	1
273	-19.6359	0	3	1
274	-18.545	0	3	1
275	-16.8308	0	3	1
276	-18.545	0	3	1
277	-15.8958	0	3	1
278	-20.1035	0	3	1
279	-17.1425	0	3	1
280	-16.3633	0	3	1
281	-17.1425	0	3	1
282	-16.675	0	3	1
283	-16.9866	0	3	1
284	-16.675	0	3	1
285	-17.9217	0	3	1
286	-17.4542	0	3	1
287	-15.7399	0	3	1
288	-18.8567	0	3	1
289	-17.1425	0	3	1
290	-17.61	0	3	1
291	-16.9866	0	3	1
292	-17.1425	0	3	1
293	-20.4151	0	3	1
294	-18.8567	0	3	1
295	-19.1684	0	3	1
296	-20.1035	0	3	1
297	-20.571	0	3	1
298	-18.7009	0	3	1
299	-21.506	0	3	1
300	-18.8567	0	3	1
301	-18.2334	0	3	1
302	-19.0126	0	3	1
303	-18.545	0	3	1
304	-16.5191	0	3	1
305	-17.61	0	3	1
306	-17.2983	0	3	1
307	-17.2983	0	3	1
308	-16.675	0	3	1
309	-19.0126	0	3	1
310	-18.2334	0	3	1
311	-19.4801	0	3	1
312	-18.3892	0	3	1
313	-19.0126	0	3	1
314	-18.545	0	3	1
315	-17.61	0	3	1
316	-17.9217	0	3	1
317	-19.0126	0	3	1
318	-19.4801	0	3	1
319	-16.8308	0	3	1
320	-19.6359	0	3	1
321	-17.61	0	3	1
322	-18.8567	0	3	1
323	-19.0126	0	3	1
324	-19.1684	0	3	1
325	-19.3242	0	3	1
326	-20.1035	0	3	1
327	-19.6359	0	3	1
328	-19.1684	0	3	1
329	-18.7009	0	3	1
330	-19.6359	0	3	1
331	-21.3502	0	3	1
332	-21.8177	0	3	1
333	-19.7918	0	3	1
334	-19.7918	0	3	1
335	-20.4151	0	3	1
336	-21.3502	0	3	1
337	-20.2593	0	3	1
338	-20.7268	0	3	1
339	-21.3502	0	3	1
340	-21.0385	0	3	1
341	-21.3502	0	3	1
342	-19.9476	0	3	1
343	-20.2593	0	3	1
344	-21.1943	0	3	1
345	-21.6619	0	3	1
346	-19.7918	0	3	1
347	-19.4801	0	3	1
348	-20.8827	0	3	1
349	-20.571	0	3	1
350	-20.1035	0	3	1
351	-19.7918	0	3	1
352	-20.8827	0	3	1
353	-21.6619	0	3	1
354	-21.1943	0	3	1
355	-20.4151	0	3	1
356	-21.8177	0	3	1
357	-22.9086	0	3	1
358	-21.6619	0	3	1
359	-22.9086	0	3	1
360	-20.571	0	3	1
361	-22.9086	0	3	1
362	-22.5969	0	3	1
363	-23.0644	0	3	1
364	-22.7527	0	3	1
365	-22.2852	0	3	1
366	-21.9735	0	3	1
367	-22.1294	0	3	1
368	-22.2852	0	3	1
369	-21.3502	0	3	1
370	-22.4411	0	3	1
371	-21.8177	0	3	1
372	-21.506	0	3	1
373	-22.2852	0	3	1
374	-21.0385	0	3	1
375	-21.3502	0	3	1
376	-20.4151	0	3	1
377	-22.1294	0	3	1
378	-22.2852	0	3	1
379	-21.8177	0	3	1
380	-21.8177	0	3	1
381	-21.9735	0	3	1
382	-22.9086	0	3	1
383	-23.2203	0	3	1
384	-22.7527	0	3	1
385	-22.2852	0	3	1
386	-22.7527	0	3	1
387	-22.5969	0	3	1
388	-22.1294	0	3	1
389	-23.3761	0	3	1
390	-21.506	0	3	1
391	-22.9086	0	3	1
392	-21.0385	0	3	1
393	-22.2852	0	3	1
394	-22.1294	0	3	1
395	-22.5969	0	3	1
396	-21.6619	0	3	1
397	-23.0644	0	3	1
398	-21.3502	0	3	1
399	-21.8177	0	3	1
400	-22.2852	0	3	1
401	-22.1294	0	3	1
402	-21.9735	0	3	1
403	-21.1943	0	3	1
404	-24.3112	0	3	1
405	-21.506	0	3	1
406	-24.1553	0	3	1
407	-24.3112	0	3	1
408	-21.9735	0	3	1
409	-22.9086	0	3	1
410	-23.6878	0	3	1
411	-24.6228	0	3	1
412	-22.1294	0	3	1
413	-23.3761	0	3	1
414	-23.2203	0	3	1
415	-23.6878	0	3	1
416	-23.2203	0	3	1
417	-24.1553	0	3	1
418	-23.3761	0	3	1
419	-25.0904	0	3	1
420	-25.0904	0	3	1
421	-23.2203	0	3	1
422	-23.0644	0	3	1
423	-24.9345	0	3	1
424	-24.467	0	3	1
425	-23.2203	0	3	1
426	-23.2203	0	3	1
427	-25.8696	0	3	1
428	-23.6878	0	3	1
429	-24.7787	0	3	1
430	-23.8436	0	3	1
431	-25.0904	0	3	1
432	-25.2462	0	3	1
433	-26.6488	0	3	1
434	-27.8955	0	3	1
435	-24.467	0	3	1
436	-27.1163	0	3	1
437	-26.3371	0	3	1
438	-24.7787	0	3	1
439	-26.6488	0	3	1
440	-26.0254	0	3	1
441	-25.2462	0	3	1
442	-24.9345	0	3	1
443	-24.467	0	3	1
444	-26.1812	0	3	1
445	-24.9345	0	3	1
446	-26.0254	0	3	1
447	-25.0904	0	3	1
448	-26.0254	0	3	1
449	-26.8046	0	3	1
450	-25.7137	0	3	1
451	-27.5838	0	3	1
452	-11.3764	0	3	1
453	-26.4929	0	3	1
454	-25.402	0	3	1
455	-26.8046	0	3	1
456	-26.4929	0	3	1
457	-29.4539	0	3	1
458	-29.7656	0	3	1
459	-26.3371	0	3	1
460	-26.9604	0	3	1
461	-26.6488	0	3	1
462	-26.0254	0	3	1
463	-26.0254	0	3	1
464	-26.4929	0	3	1
465	-26.0254	0	3	1
466	-26.3371	0	3	1
467	-27.8955	0	3	1
468	-26.8046	0	3	1
469	-26.8046	0	3	1
470	-26.3371	0	3	1
471	-27.8955	0	3	1
472	-27.2721	0	3	1
473	-27.5838	0	3	1
474	-25.402	0	3	1
475	-28.6747	0	3	1
485	-30.3889	0	3	1
495	-25.2462	0	3	1
505	-26.6488	0	3	1
515	-29.4539	0	3	1
525	-28.5189	0	3	1
535	-31.1681	0	3	1
545	-29.7656	0	3	1
555	-30.3889	0	3	1
565	-32.1032	0	3	1
575	-32.8824	0	3	1
585	-33.8174	0	3	1
595	-34.5966	0	3	1
605	-33.3499	0	3	1
615	-35.22	0	3	1
625	-34.4408	0	3	1
635	-36.4667	0	3	1
645	-36.7784	0	3	1
655	-37.8693	0	3	1
685	-39.2719	0	3	1
715	-40.3627	0	3	1
745	-46.9081	0	3	1
775	-43.3237	0	3	1
805	-45.1938	0	3	1
835	-46.5964	0	3	1
865	-49.4015	0	3	1
895	-46.9081	0	3	1
925	-48.4665	0	3	1
955	-49.7132	0	3	1
985	-50.1807	0	3	1
1015	-55.3234	0	3	1
1045	-53.4534	0	3	1
1075	-56.1027	0	3	1
1105	-55.1676	0	3	1
1135	-59.0636	0	3	1
1165	-59.0636	0	3	1
1195	-62.1804	0	3	1
1225	-63.4272	0	3	1
1255	-64.8297	0	3	1
1285	-64.9856	0	3	1
1315	-66.0765	0	3	1
1345	-67.7907	0	3	1
1375	-69.505	0	3	1
1405	-70.2842	0	3	1
1435	-74.1802	0	3	1
1465	-73.7126	0	3	1
1495	-75.4269	0	3	1
1525	-79.3229	0	3	1
1555	-78.0762	0	3	1
1585	-79.7904	0	3	1
1615	-80.1021	0	3	1
1645	-80.4138	0	3	1
1675	-82.2839	0	3	1
1705	-82.9072	0	3	1
1735	-84.3098	0	3	1
1765	-87.1149	0	3	1
1795	-87.2708	0	3	1
1825	-89.4526	0	3	1
1855	-91.3226	0	3	1
1885	-91.3226	0	3	1
1915	-90.8551	0	3	1
1945	-97.2446	0	3	1
1975	-93.8161	0	3	1
2005	-97.4004	0	3	1
2035	-97.5563	0	3	1
2065	-100.361	0	3	1
2095	-98.1796	0	3	1
2125	-98.1796	0	3	1
2155	-103.011	0	3	1
2185	-101.141	0	3	1
2215	-106.283	0	3	1
2245	-104.725	0	3	1
2275	-105.972	0	3	1
2305	-108.465	0	3	1
2335	-110.335	0	3	1
2365	-110.803	0	3	1
2395	-113.296	0	3	1
2425	-112.361	0	3	1
2455	-115.946	0	3	1
2485	-117.192	0	3	1
2515	-115.322	0	3	1
2545	-119.53	0	3	1
2575	-119.53	0	3	1
2605	-120.465	0	3	1
2635	-122.803	0	3	1
2665	-122.023	0	3	1
2695	-122.647	0	3	1
2725	-125.296	0	3	1
2755	-124.517	0	3	1
2785	-125.763	0	3	1
2815	-128.88	0	3	1
2845	-127.01	0	3	1
2875	-129.504	0	3	1
2905	-132.776	0	3	1
2935	-132.776	0	3	1
2965	-135.114	0	3	1
2995	-135.426	0	3	1
3025	-135.426	0	3	1
3055	-138.542	0	3	1
3085	-137.607	0	3	1
3115	-138.542	0	3	1
3145	-139.01	0	3	1
3175	-141.036	0	3	1
3205	-142.283	0	3	1
3235	-142.906	0	3	1
3265	-146.646	0	3	1
3295	-146.334	0	3	1
3325	-145.711	0	3	1
3355	-145.399	0	3	1
3385	-147.581	0	3	1
3390	-147.425	0	3	1
3395	-148.36	0	3	1
3400	-146.802	0	3	1
3405	-154.594	0	3	1
3410	-153.659	0	3	1
3415	-158.023	0	3	1
3420	-161.139	0	3	1
3425	-160.672	0	3	1
3430	-161.763	0	3	1
3435	-163.321	0	3	1
3440	-165.97	0	3	1
3445	-165.97	0	3	1
3450	-166.594	0	3	1
3455	-165.815	0	3	1
3460	-168.776	0	3	1
3465	-169.087	0	3	1
3470	-170.957	0	3	1
3475	-175.165	0	3	1
3480	-171.581	0	3	1
3485	-172.204	0	3	1
3490	-174.074	0	3	1
3495	-175.165	0	3	1
3500	-175.788	0	3	1
3505	-175.477	0	3	1
3510	-175.944	0	3	1
3515	-179.529	0	3	1
3520	-179.217	0	3	1
3525	-180.152	0	3	1
3530	-180.464	0	3	1
3535	-179.529	0	3	1
3540	-180.152	0	3	1
3545	-181.554	0	3	1
3550	-185.762	0	3	1
3555	-183.113	0	3	1
3560	-183.425	0	3	1
3565	-182.957	0	3	1
3570	-184.671	0	3	1
3575	-185.762	0	3	1
3580	-187.321	0	3	1
3585	-188.1	0	3	1
3590	-190.749	0	3	1
3595	-188.723	0	3	1
3600	-189.658	0	3	1
3605	-191.217	0	3	1
3610	-190.905	0	3	1
3615	-191.996	0	3	1
3620	-191.528	0	3	1
3625	-188.567	0	3	1
3630	-192.775	0	3	1
3635	-194.645	0	3	1
3640	-195.113	0	3	1
3645	-195.892	0	3	1
3650	-195.736	0	3	1
3655	-198.074	0	3	1
3660	-198.229	0	3	1
3665	-199.009	0	3	1
3670	-198.541	0	3	1
3675	-198.853	0	3	1
3680	-199.009	0	3	1
3685	-201.346	0	3	1
3690	-204.307	0	3	1
3695	-201.19	0	3	1
3700	-203.06	0	3	1
3705	-203.372	0	3	1
3710	-204.151	0	3	1
3715	-205.086	0	3	1
3720	-203.216	0	3	1
3725	-204.931	0	3	1
3730	-206.177	0	3	1
3735	-208.203	0	3	1
3740	-209.917	0	3	1
3745	-206.177	0	3	1
3750	-210.541	0	3	1
3755	-210.541	0	3	1
3760	-209.762	0	3	1
3765	-210.541	0	3	1
3770	-213.658	0	3	1
3800	-217.242	0	3	1
3830	-221.606	0	3	1
3860	-225.19	0	3	1
3890	-227.527	0	3	1
3920	-231.579	0	3	1
3950	-235.319	0	3	1
3980	-239.06	0	3	1
4010	-243.267	0	3	1
4040	-246.228	0	3	1
4070	-249.657	0	3	1
4100	-254.955	0	3	1
4130	-255.735	0	3	1
4160	-259.631	0	3	1
4190	-260.877	0	3	1
4220	-265.085	0	3	1
4250	-271.007	0	3	1
4280	-271.942	0	3	1
4310	-275.682	0	3	1
4340	-276.929	0	3	1
4370	-280.981	0	3	1
4400	-285.189	0	3	1
4430	-287.526	0	3	1
4460	-292.513	0	3	1
4490	-295.63	0	3	1
4520	-300.149	0	3	1
4550	-301.552	0	3	1
4580	-304.824	0	3	1
4610	-308.876	0	3	1
4640	-310.902	0	3	1
4670	-314.175	0	3	1
4700	-318.071	0	3	1
4730	-321.499	0	3	1
4760	-323.681	0	3	1
4790	-328.668	0	3	1
4820	-330.071	0	3	1
4850	-334.434	0	3	1
4880	-338.018	0	3	1
4910	-340.356	0	3	1
4940	-343.94	0	3	1
4970	-344.408	0	3	1
5000	-348.304	0	3	1
5030	-353.447	0	3	1
5060	-356.252	0	3	1
5090	-355.161	0	3	1
5120	-362.018	0	3	1
5150	-364.667	0	3	1
5180	-367.005	0	3	1
5210	-370.901	0	3	1
5240	-374.174	0	3	1
5270	-375.732	0	3	1
5300	-379.005	0	3	1
5330	-385.55	0	3	1
5360	-388.511	0	3	1
5390	-389.758	0	3	1
5420	-390.069	0	3	1
5450	-391.004	0	3	1
5480	-396.459	0	3	1
5510	-401.134	0	3	1
5540	-403.004	0	3	1
5570	-405.809	0	3	1
5600	-408.303	0	3	1
5630	-408.458	0	3	1
5660	-410.796	0	3	1
5690	-416.562	0	3	1
5720	-419.056	0	3	1
5750	-421.861	0	3	1
5780	-427.159	0	3	1
5810	-426.224	0	3	1
5840	-430.12	0	3	1
5870	-436.198	0	3	1
5900	-437.912	0	3	1
5930	-437.757	0	3	1
5960	-441.341	0	3	1
5990	-445.86	0	3	1
6020	-448.198	0	3	1
6050	-451.315	0	3	1
6080	-454.431	0	3	1
6110	-457.548	0	3	1
6140	-460.509	0	3	1
6170	-463.47	0	3	1
6200	-464.094	0	3	1
6230	-470.795	0	3	1
6260	-474.067	0	3	1
6290	-472.509	0	3	1
6320	-474.223	0	3	1
6350	-478.587	0	3	1
6380	-482.171	0	3	1
6410	-484.353	0	3	1
6440	-485.911	0	3	1
6445	-487.158	0	3	1
6450	-487.158	0	3	1
6455	-493.859	0	3	1
6460	-496.508	0	3	1
6465	-502.586	0	3	1
6470	-505.703	0	3	1
6475	-505.391	0	3	1
6480	-508.041	0	3	1
6485	-510.534	0	3	1
6490	-508.82	0	3	1
6495	-510.534	0	3	1
6500	-513.495	0	3	1
6505	-513.807	0	3	1
6510	-514.274	0	3	1
6515	-515.989	0	3	1
6520	-514.586	0	3	1
6525	-517.235	0	3	1
6530	-520.196	0	3	1
6535	-520.04	0	3	1
6540	-524.404	0	3	1
6545	-522.222	0	3	1
6550	-525.651	0	3	1
6555	-525.495	0	3	1
6560	-523.781	0	3	1
6565	-525.807	0	3	1
6570	-527.209	0	3	1
6575	-526.897	0	3	1
6580	-529.235	0	3	1
6585	-531.728	0	3	1
6590	-529.547	0	3	1
6595	-529.858	0	3	1
6600	-531.573	0	3	1
6605	-534.534	0	3	1
6610	-533.91	0	3	1
6615	-537.339	0	3	1
6620	-536.871	0	3	1
6625	-535.936	0	3	1
6630	-542.17	0	3	1
6635	-538.43	0	3	1
6640	-539.676	0	3	1
6645	-543.261	0	3	1
6650	-544.352	0	3	1
6655	-542.481	0	3	1
6660	-543.572	0	3	1
6665	-545.754	0	3	1
6670	-548.248	0	3	1
6675	-547.78	0	3	1
6680	-547.313	0	3	1
6685	-547.468	0	3	1
6690	-549.183	0	3	1
6695	-553.234	0	3	1
6700	-553.234	0	3	1
6705	-553.079	0	3	1
6710	-551.053	0	3	1
6715	-555.572	0	3	1
6720	-553.702	0	3	1
6725	-554.481	0	3	1
6730	-556.507	0	3	1
6735	-557.442	0	3	1
6740	-556.819	0	3	1
6745	-558.377	0	3	1
6750	-559.312	0	3	1
6755	-560.091	0	3	1
6760	-563.364	0	3	1
6765	-562.429	0	3	1
6770	-563.987	0	3	1
6775	-566.793	0	3	1
6780	-566.948	0	3	1
6785	-566.637	0	3	1
6800	-570.065	0	3	1
6815	-573.494	0	3	1
6830	-576.455	0	3	1
6845	-579.26	0	3	1
6860	-581.13	0	3	1
6875	-582.844	0	3	1
6890	-587.519	0	3	1
6905	-590.013	0	3	1
6920	-592.974	0	3	1
6935	-594.844	0	3	1
6950	-596.247	0	3	1
6965	-600.298	0	3	1
6980	-601.701	0	3	1
6995	-604.039	0	3	1
7010	-608.714	0	3	1
7025	-610.272	0	3	1
7040	-612.454	0	3	1
7055	-616.506	0	3	1
7070	-617.441	0	3	1
7085	-618.22	0	3	1
7100	-623.051	0	3	1
7115	-625.545	0	3	1
7130	-629.285	0	3	1
7145	-631.311	0	3	1
7160	-633.96	0	3	1
7175	-635.207	0	3	1
7190	-641.284	0	3	1
7205	-641.908	0	3	1
7220	-643.466	0	3	1
7235	-646.583	0	3	1
7250	-646.116	0	3	1
7265	-648.765	0	3	1
7280	-648.921	0	3	1
7295	-653.128	0	3	1
7310	-654.998	0	3	1
7325	-659.674	0	3	1
7340	-659.362	0	3	1
7355	-662.635	0	3	1
7370	-666.375	0	3	1
7385	-668.245	0	3	1
7400	-671.985	0	3	1
7415	-674.946	0	3	1
7430	-677.128	0	3	1
7445	-680.556	0	3	1
7460	-681.18	0	3	1
7475	-683.829	0	3	1
7490	-685.387	0	3	1
7505	-690.218	0	3	1
7520	-691.153	0	3	1
7535	-694.582	0	3	1
7550	-698.322	0	3	1
7565	-696.14	0	3	1
7580	-701.595	0	3	1
7595	-707.984	0	3	1
7610	-709.543	0	3	1
7625	-707.673	0	3	1
7640	-712.036	0	3	1
7655	-713.595	0	3	1
7670	-718.893	0	3	1
7685	-721.698	0	3	1
7700	-723.101	0	3	1
7715	-723.88	0	3	1
7730	-723.724	0	3	1
7745	-729.334	0	3	1
7760	-730.27	0	3	1
7775	-733.075	0	3	1
7790	-734.789	0	3	1
7805	-737.438	0	3	1
7820	-740.711	0	3	1
7835	-744.607	0	3	1
7850	-744.763	0	3	1
7865	-747.568	0	3	1
7880	-749.905	0	3	1
7895	-753.178	0	3	1
7910	-758.321	0	3	1
7925	-756.139	0	3	1
7940	-759.723	0	3	1
7955	-761.282	0	3	1
7970	-764.71	0	3	1
7985	-766.892	0	3	1
8000	-768.918	0	3	1
8015	-771.723	0	3	1
8030	-773.437	0	3	1
8045	-775.619	0	3	1
8060	-777.489	0	3	1
8075	-780.294	0	3	1
8090	-781.853	0	3	1
8105	-784.97	0	3	1
8120	-787.931	0	3	1
8135	-790.892	0	3	1
8150	-791.359	0	3	1
8165	-792.606	0	3	1
8180	-797.904	0	3	1
8195	-797.437	0	3	1
8210	-802.268	0	3	1
8225	-803.67	0	3	1
8240	-806.631	0	3	1
8255	-808.034	0	3	1
8270	-812.709	0	3	1
8285	-814.579	0	3	1
8300	-817.384	0	3	1
8315	-817.852	0	3	1
8330	-820.969	0	3	1
8345	-822.683	0	3	1
8360	-824.865	0	3	1
8375	-825.332	0	3	1
8390	-830.319	0	3	1
8405	-831.254	0	3	1
8420	-835.15	0	3	1
8435	-836.397	0	3	1
8450	-837.332	0	3	1
8465	-840.916	0	3	1
8480	-842.319	0	3	1
8495	-844.189	0	3	1
8510	-845.747	0	3	1
8525	-848.241	0	3	1
8540	-850.267	0	3	1
8555	-853.851	0	3	1
8570	-855.098	0	3	1
8585	-857.435	0	3	1
8600	-860.864	0	3	1
8615	-863.513	0	3	1
8630	-864.448	0	3	1
8645	-869.279	0	3	1
8660	-869.747	0	3	1
8675	-872.708	0	3	1
8690	-874.89	0	3	1
8705	-877.383	0	3	1
8720	-880.344	0	3	1
8735	-881.123	0	3	1
8750	-882.682	0	3	1
8765	-884.863	0	3	1
8780	-890.63	0	3	1
8795	-889.383	0	3	1
8810	-889.695	0	3	1
8825	-892.967	0	3	1
8840	-896.24	0	3	1
8855	-897.175	0	3	1
8870	-899.045	0	3	1
8885	-900.759	0	3	1
8900	-900.292	0	3	1
8915	-905.123	0	3	1
8930	-908.395	0	3	1
8945	-910.265	0	3	1
8960	-916.343	0	3	1
8975	-915.252	0	3	1
9005	-916.967	0	3	1
9035	-922.265	0	3	1
9065	-928.031	0	3	1
9095	-932.239	0	3	1
9125	-938.94	0	3	1
9155	-941.122	0	3	1
9185	-947.511	0	3	1
9215	-951.096	0	3	1
9245	-955.927	0	3	1
9275	-959.199	0	3	1
9305	-964.966	0	3	1
9335	-971.978	0	3	1
9365	-971.823	0	3	1
9395	-976.342	0	3	1
9425	-979.77	0	3	1
9455	-985.381	0	3	1
9485	-988.342	0	3	1
9515	-993.173	0	3	1
9545	-997.848	0	3	1
9575	-1001.28	0	3	1
9605	-1003.77	0	3	1
9635	-1009.38	0	3	1
9665	-1014.37	0	3	1
9695	-1020.76	0	3	1
9725	-1025.59	0	3	1
9755	-1027.15	0	3	1
9785	-1032.6	0	3	1
9815	-1036.5	0	3	1
9845	-1039.61	0	3	1
9875	-1044.44	0	3	1
9905	-1047.72	0	3	1
9935	-1052.55	0	3	1
9965	-1057.07	0	3	1
9995	-1060.96	0	3	1
10025	-1065.17	0	3	1
10055	-1071.41	0	3	1
10085	-1074.05	0	3	1
10115	-1078.26	0	3	1
10145	-1081.22	0	3	1
10175	-1085.74	0	3	1
10205	-1089.79	0	3	1
10235	-1096.5	0	3	1
10265	-1098.37	0	3	1
10295	-1103.2	0	3	1
10325	-1108.5	0	3	1
10355	-1109.27	0	3	1
10385	-1117.38	0	3	1
10415	-1118.47	0	3	1
10445	-1123.46	0	3	1
10475	-1127.35	0	3	1
10505	-1131.72	0	3	1
-3	0.2740	5	1	1
