Pcp_File_Version=2
*** BLOCK ?: BOUNDARY INFORMATION *********************************************
    NumBP     NObs  SeepF  FreeD DrainF  qQWLF
      411        5      t      f      f      f
Node Number Array
      1      90      91      92      93      94      95      96      97      98 
     99     100     101     102     103     104     105     106     107     108 
    109     110     111     112     113     114     115     116     117     118 
    119     120     121     122     123     124     125     126     127     128 
    129     130     131     132     133     134     135     136     137     138 
    139     140     141     142     143     144     145     146     147     148 
    149     150     151     152     153     154     155     156     157     158 
    159     160     161     162     163     164     165     166     167     168 
    169     170     171     172     173     174     175     176     177     178 
    179     180     181     182     183     184     185     186     187     188 
    189     190     191     192     193     194     195     196     197     198 
    199     200     201     202     203     204     205     206     207     208 
    209     210     211     212     213     214     215     216     217     218 
    219     220     221     222     223     224     225     226     227     228 
    229     230     231     232     233     234     235     236     237     238 
    239     240     241     242     243     244     245     246     247     248 
    249     250     251     252     253     254     255     256     257     258 
    259     260     261     262     263     264     265     266     267     268 
    269     270     271     272     273     274     275     276     277     278 
    279     280     281     282     283     284     285     286     287     288 
    289     290     291     292     293     294     295     296     297     298 
    299     300     301     302     303     304     305     306     307     308 
    309     310     311     312     313     314     315     316     317     318 
    319     320     321     322     323     324     325     326     327     328 
    329     330     331     332     333     334     335     336     337     338 
    339     340     341     342     343     344     345     346     347     348 
    349     350     351     352     353     354     355     356     357     358 
    359     360     361     362     363     364     365     366     367     368 
    369     370     371     372     373     374     375     376     377     378 
    379     380     381     382     383     384     385     386     387     388 
    389     390     391     392     393     394     395     396     397     398 
    399     400     401     402     403     404     405     406     407     408 
    409     410     411     412     413     414     415     416     417     418 
    419     420     421     422     423     424     425     426     427     428 
    429     430     431     432     433     434     435     436     437     438 
    439     440     441     442     443     444     445     446     447     448 
    449     450     451     452     453     454     455     456     457     458 
    459     460     461     462     463     464     465     466     467     468 
    469     470     471     472     473     474     475     476     477     478 
    479     480     481     482     483     484     485     486     487     488 
    489     490     491     492     493     494     495     496     497     498 
    499 
Width Array
6.94444 7.14286 14.2857 14.2857 14.2857 14.2857 14.2857 14.2857 14.2857 14.2857 
14.2857 14.2857 14.2857 14.2857 14.2857 14.5542 14.8086 14.7675 14.7003 14.6093 
14.4968 14.3668 14.2243 14.0747 13.9254 13.7845 13.6624 13.5694 13.5179 13.5202 
13.5758 13.6587 13.7346 13.7805 13.7837 13.7414 13.6617 13.5621 13.4719 13.4215 
13.4185 13.4571 13.5293 13.6273 13.7434 13.8716 14.0059 14.1408 14.2712 14.3931 
14.5033 14.5982 14.6754 14.7328 14.7681 14.7794 14.7665 14.7273 14.6619 14.5702 
 14.463 14.3581 14.2626 14.1767 14.1006 14.0342 13.9769 13.9294 13.8921 13.8641 
13.8453 13.8366 13.8375 13.8477 13.8666  13.889 13.9102 13.9291 13.9464  13.962 
13.9759 13.9877 13.9975 14.0056  14.012 14.0165 14.0193 14.0205 14.0196 14.0177 
14.0154 14.0132 14.0111 14.0091 14.0074 14.0058  14.004 14.0025 14.0011 13.9999 
13.9987 13.9977 13.9968 13.9957 13.9949 13.9942 13.9936  13.993 13.9927 13.9922 
13.9917 13.9915 13.9912 13.9911 13.9912 13.9913 13.9911 13.9912 13.9914 13.9917 
13.9921 13.9923 13.9926 13.9931 13.9934  13.994 13.9945  13.995 13.9958 13.9963 
13.9969 13.9977 13.9983  13.999      14 14.0007 14.0013 14.0021  14.003 14.0038 
14.0047 14.0056 14.0064 14.0073 14.0082  14.009 14.0099  14.011 14.0117 14.0126 
14.0135 14.0143 14.0152 14.0161 14.0171 14.0178 14.0187 14.0195 14.0203 14.0212 
14.0221 14.0226 14.0233 14.0243  14.025 14.0255 14.0262  14.027 14.0276 14.0283 
14.0288 14.0294   14.03 14.0305 14.0309 14.0316 14.0321 14.0323 14.0327 14.0331 
14.0334 14.0338 14.0341 14.0343 14.0345 14.0346 14.0349  14.035 14.0352 14.0352 
14.0352 14.0352 14.0351 14.0351 14.0351 14.0349 14.0347 14.0346 14.0344  14.034 
14.0337 14.0336 14.0334 14.0329 14.0323 14.0319 14.0315 14.0311 14.0306   14.03 
14.0294 14.0288 14.0282 14.0277 14.0272 14.0265  14.026 14.0254 14.0248 14.0244 
14.0237 14.0231 14.0228 14.0223 14.0216 14.0211 14.0207 14.0204 14.0198 14.0192 
14.0187 14.0183 14.0178 14.0173  14.017 14.0165 14.0159 14.0155 14.0152 14.0147 
14.0144 14.0139 14.0134 14.0131 14.0127 14.0122 14.0118 14.0115  14.011 14.0106 
14.0103 14.0099 14.0097 14.0093 14.0088 14.0085 14.0082 14.0078 14.0074 14.0072 
14.0068 14.0064 14.0062 14.0058 14.0055 14.0054  14.005 14.0046 14.0043  14.004 
14.0037 14.0035 14.0032 14.0029 14.0026 14.0023  14.002 14.0019 14.0017 14.0014 
14.0011 14.0008 14.0005 14.0004 14.0001 13.9998 13.9996 13.9994 13.9991 13.9989 
13.9988 13.9986 13.9984 13.9981 13.9979 13.9977 13.9975 13.9973 13.9971  13.997 
13.9968 13.9965 13.9964 13.9962 13.9962  13.996 13.9957 13.9955 13.9953 13.9952 
13.9952 13.9949 13.9947 13.9946 13.9945 13.9943 13.9942 13.9941 13.9939 13.9937 
13.9937 13.9935 13.9934 13.9935 13.9932  13.993 13.9929 13.9928 13.9927 13.9926 
13.9925 13.9924 13.9923 13.9922 13.9921  13.992 13.9922 13.9919 13.9918 13.9917 
13.9916 13.9915 13.9914 13.9914 13.9913 13.9913 13.9912 13.9911 13.9911 13.9913 
 13.991 13.9909 13.9908 13.9908 13.9908 13.9907 13.9907 13.9906 13.9906 13.9906 
13.9905 13.9905 13.9907 13.9904 13.9904 13.9904 13.9904 13.9904 13.9903 13.9903 
13.9903 13.9903 13.9903 13.9903 13.9903 13.9397 13.8889 13.8889 13.8889 13.8889 
13.8889 13.8889 13.8889 13.8889 13.8889 13.8889 13.8889 13.8889 13.8889 13.8889 
13.8889 13.8889 13.8889 13.8889 13.8889 13.8889 13.8889 13.8889 13.8889 13.8889 
13.8889 13.8889 13.8889 13.8889 13.8889 13.8889 13.8889 13.8889 13.8889 13.8889 
13.8889 
Length of soil surface associated with transpiration
              0
Observation nodes Node(1,....NObs)
   655   1196   2242   2674   3220 
*** BLOCK E: SEEPAGE INFORMATION (only if SeepF =.true.) *********************
NSeep                                     (number of s.f. expected to develop)
  1
NSP(1),NSP(2),.......,NSP(NSeep)                (number of nodes in each s.f.)
    69 
NP(i,1),NP(i,2),.....,NP(i,NSP(i))     (nodal number array of i-th s.f.)
   169    170    171    172    173    174    175    176    177    178 
   179    180    181    182    183    184    185    186    187    188 
   189    190    191    192    193    194    195    196    197    198 
   199    200    201    202    203    204    205    206    207    208 
   209    210    211    212    213    214    215    216    217    218 
   219    220    221    222    223    224    225    226    227    228 
   229    230    231    232    233    234    235    236    237 
*** BLOCK ?: Solute transport boundary conditions *****************************
KodCB(1),KodCB(2),.....,KodCB(NumBP)
 -1  -1  -1  -1  -1  -1  -1  -1  -1  -1  -1  -1  -1  -1  -1  -1  -1  -1  -1  -1 
 -1  -1  -1  -1  -1  -1  -1  -1  -1  -1  -1  -1  -1  -1  -1  -1  -1  -1  -1  -1 
 -1  -1  -1  -1  -1  -1  -1  -1  -1  -1  -1  -1  -1  -1  -1  -1  -1  -1  -1  -1 
 -1  -1  -1  -1  -1  -1  -1  -1  -1  -1  -1  -1  -1  -1  -1  -1  -1  -1  -1  -1 
 -1  -1  -1  -1  -1  -1  -1  -1  -1  -1  -1  -1  -1  -1  -1  -1  -1  -1  -1  -1 
 -1  -1  -1  -1  -1  -1  -1  -1  -1  -1  -1  -1  -1  -1  -1  -1  -1  -1  -1  -1 
 -1  -1  -1  -1  -1  -1  -1  -1  -1  -1  -1  -1  -1  -1  -1  -1  -1  -1  -1  -1 
 -1  -1  -1  -1  -1  -1  -1  -1  -1  -1  -1  -1  -1  -1  -1  -1  -1  -1  -1  -1 
 -1  -1  -1  -1  -1  -1  -1  -1  -1  -1  -1  -1  -1  -1  -1  -1  -1  -1  -1  -1 
 -1  -1  -1  -1  -1  -1  -1  -1  -1  -1  -1  -1  -1  -1  -1  -1  -1  -1  -1  -1 
 -1  -1  -1  -1  -1  -1  -1  -1  -1  -1  -1  -1  -1  -1  -1  -1  -1  -1  -1  -1 
 -1  -1  -1  -1  -1  -1  -1  -1  -1  -1  -1  -1  -1  -1  -1  -1  -1  -1  -1  -1 
 -1  -1  -1  -1  -1  -1  -1  -1  -1  -1  -1  -1  -1  -1  -1  -1  -1  -1  -1  -1 
 -1  -1  -1  -1  -1  -1  -1  -1  -1  -1  -1  -1  -1  -1  -1  -1  -1  -1  -1  -1 
 -1  -1  -1  -1  -1  -1  -1  -1  -1  -1  -1  -1  -1  -1  -1  -1  -1  -1  -1  -1 
 -1  -1  -1  -1  -1  -1  -1  -1  -1  -1  -1  -1  -1  -1  -1  -1  -1  -1  -1  -1 
 -1  -1  -1  -1  -1  -1  -1  -1  -1  -1  -1  -1  -1  -1  -1  -1  -1  -1  -1  -1 
 -1  -1  -1  -1  -1  -1  -1  -1  -1  -1  -1  -1  -1  -1  -1  -1  -1  -1  -1  -1 
 -1  -1  -1  -1  -1  -1  -1  -1  -1  -1  -1  -1  -1  -1  -1  -1  -1  -1  -1  -1 
 -1  -1  -1  -1  -1  -1  -1  -1  -1  -1  -1  -1  -1  -1  -1  -1  -1  -1  -1  -1 
 -1  -1  -1  -1  -1  -1  -1  -1  -1  -1  -1 
*** End of input file 'BOUNDARY.IN' *******************************************
