Pcp_File_Version=2
  NumNPD  NumElD  NumBPD  MBandD  NSeepD  NumSPD    NDrD  NElDrD   NMatD   NObsD     NSD
    4103    7705     411      15       1      69       1      20       1       5       1
